<?xml version="1.0" encoding="UTF-8"?>

<!-- generated on 2025-04-27 19:37:27 by Eclipse SUMO netconvert Version 1.22.0
<netconvertConfiguration xmlns:xsi="http://www.w3.org/2001/XMLSchema-instance" xsi:noNamespaceSchemaLocation="http://sumo.dlr.de/xsd/netconvertConfiguration.xsd">

    <input>
        <node-files value="curriculum_scenarios\grid_4x4_1lane\grid_4x4_1lane.nod.xml"/>
        <edge-files value="curriculum_scenarios\grid_4x4_1lane\grid_4x4_1lane.edg.xml"/>
    </input>

    <output>
        <output-file value="curriculum_scenarios\grid_4x4_1lane\grid_4x4_1lane.net.xml"/>
    </output>

    <tls_building>
        <tls.green.time value="30"/>
        <tls.yellow.time value="4"/>
        <tls.red.time value="1"/>
    </tls_building>

    <junctions>
        <no-turnarounds value="true"/>
    </junctions>

</netconvertConfiguration>
-->

<net version="1.20" junctionCornerDetail="5" limitTurnSpeed="5.50" xmlns:xsi="http://www.w3.org/2001/XMLSchema-instance" xsi:noNamespaceSchemaLocation="http://sumo.dlr.de/xsd/net_file.xsd">

    <location netOffset="0.00,0.00" convBoundary="0.00,0.00,600.00,600.00" origBoundary="0.00,0.00,600.00,600.00" projParameter="!"/>

    <edge id=":node_0_0_0" function="internal">
        <lane id=":node_0_0_0_0" index="0" speed="6.08" length="7.74" shape="-1.60,3.20 -1.30,1.10 -0.40,-0.40 1.10,-1.30 3.20,-1.60"/>
    </edge>
    <edge id=":node_0_0_1" function="internal">
        <lane id=":node_0_0_1_0" index="0" speed="3.90" length="2.58" shape="3.20,1.60 2.50,1.70 2.00,2.00 1.70,2.50 1.60,3.20"/>
    </edge>
    <edge id=":node_0_1_0" function="internal">
        <lane id=":node_0_1_0_0" index="0" speed="13.89" length="14.40" shape="-1.60,207.20 -1.60,192.80"/>
    </edge>
    <edge id=":node_0_1_1" function="internal">
        <lane id=":node_0_1_1_0" index="0" speed="8.00" length="4.07" shape="-1.60,207.20 -1.05,203.35 -0.96,203.20"/>
    </edge>
    <edge id=":node_0_1_6" function="internal">
        <lane id=":node_0_1_6_0" index="0" speed="8.00" length="10.13" shape="-0.96,203.20 0.60,200.60 3.35,198.95 7.20,198.40"/>
    </edge>
    <edge id=":node_0_1_2" function="internal">
        <lane id=":node_0_1_2_0" index="0" speed="6.51" length="9.03" shape="7.20,201.60 4.75,201.95 3.00,203.00 1.95,204.75 1.60,207.20"/>
    </edge>
    <edge id=":node_0_1_3" function="internal">
        <lane id=":node_0_1_3_0" index="0" speed="8.00" length="14.19" shape="7.20,201.60 3.35,201.05 0.60,199.40 -1.05,196.65 -1.60,192.80"/>
    </edge>
    <edge id=":node_0_1_4" function="internal">
        <lane id=":node_0_1_4_0" index="0" speed="6.51" length="9.03" shape="1.60,192.80 1.95,195.25 3.00,197.00 4.75,198.05 7.20,198.40"/>
    </edge>
    <edge id=":node_0_1_5" function="internal">
        <lane id=":node_0_1_5_0" index="0" speed="13.89" length="14.40" shape="1.60,192.80 1.60,207.20"/>
    </edge>
    <edge id=":node_0_2_0" function="internal">
        <lane id=":node_0_2_0_0" index="0" speed="13.89" length="14.40" shape="-1.60,407.20 -1.60,392.80"/>
    </edge>
    <edge id=":node_0_2_1" function="internal">
        <lane id=":node_0_2_1_0" index="0" speed="8.00" length="4.07" shape="-1.60,407.20 -1.05,403.35 -0.96,403.20"/>
    </edge>
    <edge id=":node_0_2_6" function="internal">
        <lane id=":node_0_2_6_0" index="0" speed="8.00" length="10.13" shape="-0.96,403.20 0.60,400.60 3.35,398.95 7.20,398.40"/>
    </edge>
    <edge id=":node_0_2_2" function="internal">
        <lane id=":node_0_2_2_0" index="0" speed="6.51" length="9.03" shape="7.20,401.60 4.75,401.95 3.00,403.00 1.95,404.75 1.60,407.20"/>
    </edge>
    <edge id=":node_0_2_3" function="internal">
        <lane id=":node_0_2_3_0" index="0" speed="8.00" length="14.19" shape="7.20,401.60 3.35,401.05 0.60,399.40 -1.05,396.65 -1.60,392.80"/>
    </edge>
    <edge id=":node_0_2_4" function="internal">
        <lane id=":node_0_2_4_0" index="0" speed="6.51" length="9.03" shape="1.60,392.80 1.95,395.25 3.00,397.00 4.75,398.05 7.20,398.40"/>
    </edge>
    <edge id=":node_0_2_5" function="internal">
        <lane id=":node_0_2_5_0" index="0" speed="13.89" length="14.40" shape="1.60,392.80 1.60,407.20"/>
    </edge>
    <edge id=":node_0_3_0" function="internal">
        <lane id=":node_0_3_0_0" index="0" speed="6.08" length="7.74" shape="3.20,601.60 1.10,601.30 -0.40,600.40 -1.30,598.90 -1.60,596.80"/>
    </edge>
    <edge id=":node_0_3_1" function="internal">
        <lane id=":node_0_3_1_0" index="0" speed="3.90" length="2.58" shape="1.60,596.80 1.70,597.50 2.00,598.00 2.50,598.30 3.20,598.40"/>
    </edge>
    <edge id=":node_1_0_0" function="internal">
        <lane id=":node_1_0_0_0" index="0" speed="6.51" length="9.03" shape="198.40,7.20 198.05,4.75 197.00,3.00 195.25,1.95 192.80,1.60"/>
    </edge>
    <edge id=":node_1_0_1" function="internal">
        <lane id=":node_1_0_1_0" index="0" speed="8.00" length="14.19" shape="198.40,7.20 198.95,3.35 200.60,0.60 203.35,-1.05 207.20,-1.60"/>
    </edge>
    <edge id=":node_1_0_2" function="internal">
        <lane id=":node_1_0_2_0" index="0" speed="6.51" length="9.03" shape="207.20,1.60 204.75,1.95 203.00,3.00 201.95,4.75 201.60,7.20"/>
    </edge>
    <edge id=":node_1_0_3" function="internal">
        <lane id=":node_1_0_3_0" index="0" speed="13.89" length="14.40" shape="207.20,1.60 192.80,1.60"/>
    </edge>
    <edge id=":node_1_0_4" function="internal">
        <lane id=":node_1_0_4_0" index="0" speed="13.89" length="14.40" shape="192.80,-1.60 207.20,-1.60"/>
    </edge>
    <edge id=":node_1_0_5" function="internal">
        <lane id=":node_1_0_5_0" index="0" speed="8.00" length="4.07" shape="192.80,-1.60 196.65,-1.05 196.80,-0.96"/>
    </edge>
    <edge id=":node_1_0_6" function="internal">
        <lane id=":node_1_0_6_0" index="0" speed="8.00" length="10.13" shape="196.80,-0.96 199.40,0.60 201.05,3.35 201.60,7.20"/>
    </edge>
    <edge id=":node_1_1_0" function="internal">
        <lane id=":node_1_1_0_0" index="0" speed="6.51" length="9.03" shape="198.40,207.20 198.05,204.75 197.00,203.00 195.25,201.95 192.80,201.60"/>
    </edge>
    <edge id=":node_1_1_1" function="internal">
        <lane id=":node_1_1_1_0" index="0" speed="13.89" length="14.40" shape="198.40,207.20 198.40,192.80"/>
    </edge>
    <edge id=":node_1_1_2" function="internal">
        <lane id=":node_1_1_2_0" index="0" speed="8.00" length="4.07" shape="198.40,207.20 198.95,203.35 199.04,203.20"/>
    </edge>
    <edge id=":node_1_1_12" function="internal">
        <lane id=":node_1_1_12_0" index="0" speed="8.00" length="10.13" shape="199.04,203.20 200.60,200.60 203.35,198.95 207.20,198.40"/>
    </edge>
    <edge id=":node_1_1_3" function="internal">
        <lane id=":node_1_1_3_0" index="0" speed="6.51" length="9.03" shape="207.20,201.60 204.75,201.95 203.00,203.00 201.95,204.75 201.60,207.20"/>
    </edge>
    <edge id=":node_1_1_4" function="internal">
        <lane id=":node_1_1_4_0" index="0" speed="13.89" length="14.40" shape="207.20,201.60 192.80,201.60"/>
    </edge>
    <edge id=":node_1_1_5" function="internal">
        <lane id=":node_1_1_5_0" index="0" speed="8.00" length="4.07" shape="207.20,201.60 203.35,201.05 203.20,200.96"/>
    </edge>
    <edge id=":node_1_1_13" function="internal">
        <lane id=":node_1_1_13_0" index="0" speed="8.00" length="10.13" shape="203.20,200.96 200.60,199.40 198.95,196.65 198.40,192.80"/>
    </edge>
    <edge id=":node_1_1_6" function="internal">
        <lane id=":node_1_1_6_0" index="0" speed="6.51" length="9.03" shape="201.60,192.80 201.95,195.25 203.00,197.00 204.75,198.05 207.20,198.40"/>
    </edge>
    <edge id=":node_1_1_7" function="internal">
        <lane id=":node_1_1_7_0" index="0" speed="13.89" length="14.40" shape="201.60,192.80 201.60,207.20"/>
    </edge>
    <edge id=":node_1_1_8" function="internal">
        <lane id=":node_1_1_8_0" index="0" speed="8.00" length="4.07" shape="201.60,192.80 201.05,196.65 200.96,196.80"/>
    </edge>
    <edge id=":node_1_1_14" function="internal">
        <lane id=":node_1_1_14_0" index="0" speed="8.00" length="10.13" shape="200.96,196.80 199.40,199.40 196.65,201.05 192.80,201.60"/>
    </edge>
    <edge id=":node_1_1_9" function="internal">
        <lane id=":node_1_1_9_0" index="0" speed="6.51" length="9.03" shape="192.80,198.40 195.25,198.05 197.00,197.00 198.05,195.25 198.40,192.80"/>
    </edge>
    <edge id=":node_1_1_10" function="internal">
        <lane id=":node_1_1_10_0" index="0" speed="13.89" length="14.40" shape="192.80,198.40 207.20,198.40"/>
    </edge>
    <edge id=":node_1_1_11" function="internal">
        <lane id=":node_1_1_11_0" index="0" speed="8.00" length="4.07" shape="192.80,198.40 196.65,198.95 196.80,199.04"/>
    </edge>
    <edge id=":node_1_1_15" function="internal">
        <lane id=":node_1_1_15_0" index="0" speed="8.00" length="10.13" shape="196.80,199.04 199.40,200.60 201.05,203.35 201.60,207.20"/>
    </edge>
    <edge id=":node_1_2_0" function="internal">
        <lane id=":node_1_2_0_0" index="0" speed="6.51" length="9.03" shape="198.40,407.20 198.05,404.75 197.00,403.00 195.25,401.95 192.80,401.60"/>
    </edge>
    <edge id=":node_1_2_1" function="internal">
        <lane id=":node_1_2_1_0" index="0" speed="13.89" length="14.40" shape="198.40,407.20 198.40,392.80"/>
    </edge>
    <edge id=":node_1_2_2" function="internal">
        <lane id=":node_1_2_2_0" index="0" speed="8.00" length="4.07" shape="198.40,407.20 198.95,403.35 199.04,403.20"/>
    </edge>
    <edge id=":node_1_2_12" function="internal">
        <lane id=":node_1_2_12_0" index="0" speed="8.00" length="10.13" shape="199.04,403.20 200.60,400.60 203.35,398.95 207.20,398.40"/>
    </edge>
    <edge id=":node_1_2_3" function="internal">
        <lane id=":node_1_2_3_0" index="0" speed="6.51" length="9.03" shape="207.20,401.60 204.75,401.95 203.00,403.00 201.95,404.75 201.60,407.20"/>
    </edge>
    <edge id=":node_1_2_4" function="internal">
        <lane id=":node_1_2_4_0" index="0" speed="13.89" length="14.40" shape="207.20,401.60 192.80,401.60"/>
    </edge>
    <edge id=":node_1_2_5" function="internal">
        <lane id=":node_1_2_5_0" index="0" speed="8.00" length="4.07" shape="207.20,401.60 203.35,401.05 203.20,400.96"/>
    </edge>
    <edge id=":node_1_2_13" function="internal">
        <lane id=":node_1_2_13_0" index="0" speed="8.00" length="10.13" shape="203.20,400.96 200.60,399.40 198.95,396.65 198.40,392.80"/>
    </edge>
    <edge id=":node_1_2_6" function="internal">
        <lane id=":node_1_2_6_0" index="0" speed="6.51" length="9.03" shape="201.60,392.80 201.95,395.25 203.00,397.00 204.75,398.05 207.20,398.40"/>
    </edge>
    <edge id=":node_1_2_7" function="internal">
        <lane id=":node_1_2_7_0" index="0" speed="13.89" length="14.40" shape="201.60,392.80 201.60,407.20"/>
    </edge>
    <edge id=":node_1_2_8" function="internal">
        <lane id=":node_1_2_8_0" index="0" speed="8.00" length="4.07" shape="201.60,392.80 201.05,396.65 200.96,396.80"/>
    </edge>
    <edge id=":node_1_2_14" function="internal">
        <lane id=":node_1_2_14_0" index="0" speed="8.00" length="10.13" shape="200.96,396.80 199.40,399.40 196.65,401.05 192.80,401.60"/>
    </edge>
    <edge id=":node_1_2_9" function="internal">
        <lane id=":node_1_2_9_0" index="0" speed="6.51" length="9.03" shape="192.80,398.40 195.25,398.05 197.00,397.00 198.05,395.25 198.40,392.80"/>
    </edge>
    <edge id=":node_1_2_10" function="internal">
        <lane id=":node_1_2_10_0" index="0" speed="13.89" length="14.40" shape="192.80,398.40 207.20,398.40"/>
    </edge>
    <edge id=":node_1_2_11" function="internal">
        <lane id=":node_1_2_11_0" index="0" speed="8.00" length="4.07" shape="192.80,398.40 196.65,398.95 196.80,399.04"/>
    </edge>
    <edge id=":node_1_2_15" function="internal">
        <lane id=":node_1_2_15_0" index="0" speed="8.00" length="10.13" shape="196.80,399.04 199.40,400.60 201.05,403.35 201.60,407.20"/>
    </edge>
    <edge id=":node_1_3_0" function="internal">
        <lane id=":node_1_3_0_0" index="0" speed="13.89" length="14.40" shape="207.20,601.60 192.80,601.60"/>
    </edge>
    <edge id=":node_1_3_1" function="internal">
        <lane id=":node_1_3_1_0" index="0" speed="8.00" length="4.07" shape="207.20,601.60 203.35,601.05 203.20,600.96"/>
    </edge>
    <edge id=":node_1_3_6" function="internal">
        <lane id=":node_1_3_6_0" index="0" speed="8.00" length="10.13" shape="203.20,600.96 200.60,599.40 198.95,596.65 198.40,592.80"/>
    </edge>
    <edge id=":node_1_3_2" function="internal">
        <lane id=":node_1_3_2_0" index="0" speed="6.51" length="9.03" shape="201.60,592.80 201.95,595.25 203.00,597.00 204.75,598.05 207.20,598.40"/>
    </edge>
    <edge id=":node_1_3_3" function="internal">
        <lane id=":node_1_3_3_0" index="0" speed="8.00" length="14.19" shape="201.60,592.80 201.05,596.65 199.40,599.40 196.65,601.05 192.80,601.60"/>
    </edge>
    <edge id=":node_1_3_4" function="internal">
        <lane id=":node_1_3_4_0" index="0" speed="6.51" length="9.03" shape="192.80,598.40 195.25,598.05 197.00,597.00 198.05,595.25 198.40,592.80"/>
    </edge>
    <edge id=":node_1_3_5" function="internal">
        <lane id=":node_1_3_5_0" index="0" speed="13.89" length="14.40" shape="192.80,598.40 207.20,598.40"/>
    </edge>
    <edge id=":node_2_0_0" function="internal">
        <lane id=":node_2_0_0_0" index="0" speed="6.51" length="9.03" shape="398.40,7.20 398.05,4.75 397.00,3.00 395.25,1.95 392.80,1.60"/>
    </edge>
    <edge id=":node_2_0_1" function="internal">
        <lane id=":node_2_0_1_0" index="0" speed="8.00" length="14.19" shape="398.40,7.20 398.95,3.35 400.60,0.60 403.35,-1.05 407.20,-1.60"/>
    </edge>
    <edge id=":node_2_0_2" function="internal">
        <lane id=":node_2_0_2_0" index="0" speed="6.51" length="9.03" shape="407.20,1.60 404.75,1.95 403.00,3.00 401.95,4.75 401.60,7.20"/>
    </edge>
    <edge id=":node_2_0_3" function="internal">
        <lane id=":node_2_0_3_0" index="0" speed="13.89" length="14.40" shape="407.20,1.60 392.80,1.60"/>
    </edge>
    <edge id=":node_2_0_4" function="internal">
        <lane id=":node_2_0_4_0" index="0" speed="13.89" length="14.40" shape="392.80,-1.60 407.20,-1.60"/>
    </edge>
    <edge id=":node_2_0_5" function="internal">
        <lane id=":node_2_0_5_0" index="0" speed="8.00" length="4.07" shape="392.80,-1.60 396.65,-1.05 396.80,-0.96"/>
    </edge>
    <edge id=":node_2_0_6" function="internal">
        <lane id=":node_2_0_6_0" index="0" speed="8.00" length="10.13" shape="396.80,-0.96 399.40,0.60 401.05,3.35 401.60,7.20"/>
    </edge>
    <edge id=":node_2_1_0" function="internal">
        <lane id=":node_2_1_0_0" index="0" speed="6.51" length="9.03" shape="398.40,207.20 398.05,204.75 397.00,203.00 395.25,201.95 392.80,201.60"/>
    </edge>
    <edge id=":node_2_1_1" function="internal">
        <lane id=":node_2_1_1_0" index="0" speed="13.89" length="14.40" shape="398.40,207.20 398.40,192.80"/>
    </edge>
    <edge id=":node_2_1_2" function="internal">
        <lane id=":node_2_1_2_0" index="0" speed="8.00" length="4.07" shape="398.40,207.20 398.95,203.35 399.04,203.20"/>
    </edge>
    <edge id=":node_2_1_12" function="internal">
        <lane id=":node_2_1_12_0" index="0" speed="8.00" length="10.13" shape="399.04,203.20 400.60,200.60 403.35,198.95 407.20,198.40"/>
    </edge>
    <edge id=":node_2_1_3" function="internal">
        <lane id=":node_2_1_3_0" index="0" speed="6.51" length="9.03" shape="407.20,201.60 404.75,201.95 403.00,203.00 401.95,204.75 401.60,207.20"/>
    </edge>
    <edge id=":node_2_1_4" function="internal">
        <lane id=":node_2_1_4_0" index="0" speed="13.89" length="14.40" shape="407.20,201.60 392.80,201.60"/>
    </edge>
    <edge id=":node_2_1_5" function="internal">
        <lane id=":node_2_1_5_0" index="0" speed="8.00" length="4.07" shape="407.20,201.60 403.35,201.05 403.20,200.96"/>
    </edge>
    <edge id=":node_2_1_13" function="internal">
        <lane id=":node_2_1_13_0" index="0" speed="8.00" length="10.13" shape="403.20,200.96 400.60,199.40 398.95,196.65 398.40,192.80"/>
    </edge>
    <edge id=":node_2_1_6" function="internal">
        <lane id=":node_2_1_6_0" index="0" speed="6.51" length="9.03" shape="401.60,192.80 401.95,195.25 403.00,197.00 404.75,198.05 407.20,198.40"/>
    </edge>
    <edge id=":node_2_1_7" function="internal">
        <lane id=":node_2_1_7_0" index="0" speed="13.89" length="14.40" shape="401.60,192.80 401.60,207.20"/>
    </edge>
    <edge id=":node_2_1_8" function="internal">
        <lane id=":node_2_1_8_0" index="0" speed="8.00" length="4.07" shape="401.60,192.80 401.05,196.65 400.96,196.80"/>
    </edge>
    <edge id=":node_2_1_14" function="internal">
        <lane id=":node_2_1_14_0" index="0" speed="8.00" length="10.13" shape="400.96,196.80 399.40,199.40 396.65,201.05 392.80,201.60"/>
    </edge>
    <edge id=":node_2_1_9" function="internal">
        <lane id=":node_2_1_9_0" index="0" speed="6.51" length="9.03" shape="392.80,198.40 395.25,198.05 397.00,197.00 398.05,195.25 398.40,192.80"/>
    </edge>
    <edge id=":node_2_1_10" function="internal">
        <lane id=":node_2_1_10_0" index="0" speed="13.89" length="14.40" shape="392.80,198.40 407.20,198.40"/>
    </edge>
    <edge id=":node_2_1_11" function="internal">
        <lane id=":node_2_1_11_0" index="0" speed="8.00" length="4.07" shape="392.80,198.40 396.65,198.95 396.80,199.04"/>
    </edge>
    <edge id=":node_2_1_15" function="internal">
        <lane id=":node_2_1_15_0" index="0" speed="8.00" length="10.13" shape="396.80,199.04 399.40,200.60 401.05,203.35 401.60,207.20"/>
    </edge>
    <edge id=":node_2_2_0" function="internal">
        <lane id=":node_2_2_0_0" index="0" speed="6.51" length="9.03" shape="398.40,407.20 398.05,404.75 397.00,403.00 395.25,401.95 392.80,401.60"/>
    </edge>
    <edge id=":node_2_2_1" function="internal">
        <lane id=":node_2_2_1_0" index="0" speed="13.89" length="14.40" shape="398.40,407.20 398.40,392.80"/>
    </edge>
    <edge id=":node_2_2_2" function="internal">
        <lane id=":node_2_2_2_0" index="0" speed="8.00" length="4.07" shape="398.40,407.20 398.95,403.35 399.04,403.20"/>
    </edge>
    <edge id=":node_2_2_12" function="internal">
        <lane id=":node_2_2_12_0" index="0" speed="8.00" length="10.13" shape="399.04,403.20 400.60,400.60 403.35,398.95 407.20,398.40"/>
    </edge>
    <edge id=":node_2_2_3" function="internal">
        <lane id=":node_2_2_3_0" index="0" speed="6.51" length="9.03" shape="407.20,401.60 404.75,401.95 403.00,403.00 401.95,404.75 401.60,407.20"/>
    </edge>
    <edge id=":node_2_2_4" function="internal">
        <lane id=":node_2_2_4_0" index="0" speed="13.89" length="14.40" shape="407.20,401.60 392.80,401.60"/>
    </edge>
    <edge id=":node_2_2_5" function="internal">
        <lane id=":node_2_2_5_0" index="0" speed="8.00" length="4.07" shape="407.20,401.60 403.35,401.05 403.20,400.96"/>
    </edge>
    <edge id=":node_2_2_13" function="internal">
        <lane id=":node_2_2_13_0" index="0" speed="8.00" length="10.13" shape="403.20,400.96 400.60,399.40 398.95,396.65 398.40,392.80"/>
    </edge>
    <edge id=":node_2_2_6" function="internal">
        <lane id=":node_2_2_6_0" index="0" speed="6.51" length="9.03" shape="401.60,392.80 401.95,395.25 403.00,397.00 404.75,398.05 407.20,398.40"/>
    </edge>
    <edge id=":node_2_2_7" function="internal">
        <lane id=":node_2_2_7_0" index="0" speed="13.89" length="14.40" shape="401.60,392.80 401.60,407.20"/>
    </edge>
    <edge id=":node_2_2_8" function="internal">
        <lane id=":node_2_2_8_0" index="0" speed="8.00" length="4.07" shape="401.60,392.80 401.05,396.65 400.96,396.80"/>
    </edge>
    <edge id=":node_2_2_14" function="internal">
        <lane id=":node_2_2_14_0" index="0" speed="8.00" length="10.13" shape="400.96,396.80 399.40,399.40 396.65,401.05 392.80,401.60"/>
    </edge>
    <edge id=":node_2_2_9" function="internal">
        <lane id=":node_2_2_9_0" index="0" speed="6.51" length="9.03" shape="392.80,398.40 395.25,398.05 397.00,397.00 398.05,395.25 398.40,392.80"/>
    </edge>
    <edge id=":node_2_2_10" function="internal">
        <lane id=":node_2_2_10_0" index="0" speed="13.89" length="14.40" shape="392.80,398.40 407.20,398.40"/>
    </edge>
    <edge id=":node_2_2_11" function="internal">
        <lane id=":node_2_2_11_0" index="0" speed="8.00" length="4.07" shape="392.80,398.40 396.65,398.95 396.80,399.04"/>
    </edge>
    <edge id=":node_2_2_15" function="internal">
        <lane id=":node_2_2_15_0" index="0" speed="8.00" length="10.13" shape="396.80,399.04 399.40,400.60 401.05,403.35 401.60,407.20"/>
    </edge>
    <edge id=":node_2_3_0" function="internal">
        <lane id=":node_2_3_0_0" index="0" speed="13.89" length="14.40" shape="407.20,601.60 392.80,601.60"/>
    </edge>
    <edge id=":node_2_3_1" function="internal">
        <lane id=":node_2_3_1_0" index="0" speed="8.00" length="4.07" shape="407.20,601.60 403.35,601.05 403.20,600.96"/>
    </edge>
    <edge id=":node_2_3_6" function="internal">
        <lane id=":node_2_3_6_0" index="0" speed="8.00" length="10.13" shape="403.20,600.96 400.60,599.40 398.95,596.65 398.40,592.80"/>
    </edge>
    <edge id=":node_2_3_2" function="internal">
        <lane id=":node_2_3_2_0" index="0" speed="6.51" length="9.03" shape="401.60,592.80 401.95,595.25 403.00,597.00 404.75,598.05 407.20,598.40"/>
    </edge>
    <edge id=":node_2_3_3" function="internal">
        <lane id=":node_2_3_3_0" index="0" speed="8.00" length="14.19" shape="401.60,592.80 401.05,596.65 399.40,599.40 396.65,601.05 392.80,601.60"/>
    </edge>
    <edge id=":node_2_3_4" function="internal">
        <lane id=":node_2_3_4_0" index="0" speed="6.51" length="9.03" shape="392.80,598.40 395.25,598.05 397.00,597.00 398.05,595.25 398.40,592.80"/>
    </edge>
    <edge id=":node_2_3_5" function="internal">
        <lane id=":node_2_3_5_0" index="0" speed="13.89" length="14.40" shape="392.80,598.40 407.20,598.40"/>
    </edge>
    <edge id=":node_3_0_0" function="internal">
        <lane id=":node_3_0_0_0" index="0" speed="3.90" length="2.58" shape="598.40,3.20 598.30,2.50 598.00,2.00 597.50,1.70 596.80,1.60"/>
    </edge>
    <edge id=":node_3_0_1" function="internal">
        <lane id=":node_3_0_1_0" index="0" speed="6.08" length="7.74" shape="596.80,-1.60 598.90,-1.30 600.40,-0.40 601.30,1.10 601.60,3.20"/>
    </edge>
    <edge id=":node_3_1_0" function="internal">
        <lane id=":node_3_1_0_0" index="0" speed="6.51" length="9.03" shape="598.40,207.20 598.05,204.75 597.00,203.00 595.25,201.95 592.80,201.60"/>
    </edge>
    <edge id=":node_3_1_1" function="internal">
        <lane id=":node_3_1_1_0" index="0" speed="13.89" length="14.40" shape="598.40,207.20 598.40,192.80"/>
    </edge>
    <edge id=":node_3_1_2" function="internal">
        <lane id=":node_3_1_2_0" index="0" speed="13.89" length="14.40" shape="601.60,192.80 601.60,207.20"/>
    </edge>
    <edge id=":node_3_1_3" function="internal">
        <lane id=":node_3_1_3_0" index="0" speed="8.00" length="4.07" shape="601.60,192.80 601.05,196.65 600.96,196.80"/>
    </edge>
    <edge id=":node_3_1_6" function="internal">
        <lane id=":node_3_1_6_0" index="0" speed="8.00" length="10.13" shape="600.96,196.80 599.40,199.40 596.65,201.05 592.80,201.60"/>
    </edge>
    <edge id=":node_3_1_4" function="internal">
        <lane id=":node_3_1_4_0" index="0" speed="6.51" length="9.03" shape="592.80,198.40 595.25,198.05 597.00,197.00 598.05,195.25 598.40,192.80"/>
    </edge>
    <edge id=":node_3_1_5" function="internal">
        <lane id=":node_3_1_5_0" index="0" speed="8.00" length="14.19" shape="592.80,198.40 596.65,198.95 599.40,200.60 601.05,203.35 601.60,207.20"/>
    </edge>
    <edge id=":node_3_2_0" function="internal">
        <lane id=":node_3_2_0_0" index="0" speed="6.51" length="9.03" shape="598.40,407.20 598.05,404.75 597.00,403.00 595.25,401.95 592.80,401.60"/>
    </edge>
    <edge id=":node_3_2_1" function="internal">
        <lane id=":node_3_2_1_0" index="0" speed="13.89" length="14.40" shape="598.40,407.20 598.40,392.80"/>
    </edge>
    <edge id=":node_3_2_2" function="internal">
        <lane id=":node_3_2_2_0" index="0" speed="13.89" length="14.40" shape="601.60,392.80 601.60,407.20"/>
    </edge>
    <edge id=":node_3_2_3" function="internal">
        <lane id=":node_3_2_3_0" index="0" speed="8.00" length="4.07" shape="601.60,392.80 601.05,396.65 600.96,396.80"/>
    </edge>
    <edge id=":node_3_2_6" function="internal">
        <lane id=":node_3_2_6_0" index="0" speed="8.00" length="10.13" shape="600.96,396.80 599.40,399.40 596.65,401.05 592.80,401.60"/>
    </edge>
    <edge id=":node_3_2_4" function="internal">
        <lane id=":node_3_2_4_0" index="0" speed="6.51" length="9.03" shape="592.80,398.40 595.25,398.05 597.00,397.00 598.05,395.25 598.40,392.80"/>
    </edge>
    <edge id=":node_3_2_5" function="internal">
        <lane id=":node_3_2_5_0" index="0" speed="8.00" length="14.19" shape="592.80,398.40 596.65,398.95 599.40,400.60 601.05,403.35 601.60,407.20"/>
    </edge>
    <edge id=":node_3_3_0" function="internal">
        <lane id=":node_3_3_0_0" index="0" speed="6.08" length="7.74" shape="601.60,596.80 601.30,598.90 600.40,600.40 598.90,601.30 596.80,601.60"/>
    </edge>
    <edge id=":node_3_3_1" function="internal">
        <lane id=":node_3_3_1_0" index="0" speed="3.90" length="2.58" shape="596.80,598.40 597.50,598.30 598.00,598.00 598.30,597.50 598.40,596.80"/>
    </edge>

    <edge id="edge_0_0_to_0_1" from="node_0_0" to="node_0_1" priority="-1">
        <lane id="edge_0_0_to_0_1_0" index="0" speed="13.89" length="189.60" shape="1.60,3.20 1.60,192.80"/>
    </edge>
    <edge id="edge_0_0_to_1_0" from="node_0_0" to="node_1_0" priority="-1">
        <lane id="edge_0_0_to_1_0_0" index="0" speed="13.89" length="189.60" shape="3.20,-1.60 192.80,-1.60"/>
    </edge>
    <edge id="edge_0_1_to_0_0" from="node_0_1" to="node_0_0" priority="-1">
        <lane id="edge_0_1_to_0_0_0" index="0" speed="13.89" length="189.60" shape="-1.60,192.80 -1.60,3.20"/>
    </edge>
    <edge id="edge_0_1_to_0_2" from="node_0_1" to="node_0_2" priority="-1">
        <lane id="edge_0_1_to_0_2_0" index="0" speed="13.89" length="185.60" shape="1.60,207.20 1.60,392.80"/>
    </edge>
    <edge id="edge_0_1_to_1_1" from="node_0_1" to="node_1_1" priority="-1">
        <lane id="edge_0_1_to_1_1_0" index="0" speed="13.89" length="185.60" shape="7.20,198.40 192.80,198.40"/>
    </edge>
    <edge id="edge_0_2_to_0_1" from="node_0_2" to="node_0_1" priority="-1">
        <lane id="edge_0_2_to_0_1_0" index="0" speed="13.89" length="185.60" shape="-1.60,392.80 -1.60,207.20"/>
    </edge>
    <edge id="edge_0_2_to_0_3" from="node_0_2" to="node_0_3" priority="-1">
        <lane id="edge_0_2_to_0_3_0" index="0" speed="13.89" length="189.60" shape="1.60,407.20 1.60,596.80"/>
    </edge>
    <edge id="edge_0_2_to_1_2" from="node_0_2" to="node_1_2" priority="-1">
        <lane id="edge_0_2_to_1_2_0" index="0" speed="13.89" length="185.60" shape="7.20,398.40 192.80,398.40"/>
    </edge>
    <edge id="edge_0_3_to_0_2" from="node_0_3" to="node_0_2" priority="-1">
        <lane id="edge_0_3_to_0_2_0" index="0" speed="13.89" length="189.60" shape="-1.60,596.80 -1.60,407.20"/>
    </edge>
    <edge id="edge_0_3_to_1_3" from="node_0_3" to="node_1_3" priority="-1">
        <lane id="edge_0_3_to_1_3_0" index="0" speed="13.89" length="189.60" shape="3.20,598.40 192.80,598.40"/>
    </edge>
    <edge id="edge_1_0_to_0_0" from="node_1_0" to="node_0_0" priority="-1">
        <lane id="edge_1_0_to_0_0_0" index="0" speed="13.89" length="189.60" shape="192.80,1.60 3.20,1.60"/>
    </edge>
    <edge id="edge_1_0_to_1_1" from="node_1_0" to="node_1_1" priority="-1">
        <lane id="edge_1_0_to_1_1_0" index="0" speed="13.89" length="185.60" shape="201.60,7.20 201.60,192.80"/>
    </edge>
    <edge id="edge_1_0_to_2_0" from="node_1_0" to="node_2_0" priority="-1">
        <lane id="edge_1_0_to_2_0_0" index="0" speed="13.89" length="185.60" shape="207.20,-1.60 392.80,-1.60"/>
    </edge>
    <edge id="edge_1_1_to_0_1" from="node_1_1" to="node_0_1" priority="-1">
        <lane id="edge_1_1_to_0_1_0" index="0" speed="13.89" length="185.60" shape="192.80,201.60 7.20,201.60"/>
    </edge>
    <edge id="edge_1_1_to_1_0" from="node_1_1" to="node_1_0" priority="-1">
        <lane id="edge_1_1_to_1_0_0" index="0" speed="13.89" length="185.60" shape="198.40,192.80 198.40,7.20"/>
    </edge>
    <edge id="edge_1_1_to_1_2" from="node_1_1" to="node_1_2" priority="-1">
        <lane id="edge_1_1_to_1_2_0" index="0" speed="13.89" length="185.60" shape="201.60,207.20 201.60,392.80"/>
    </edge>
    <edge id="edge_1_1_to_2_1" from="node_1_1" to="node_2_1" priority="-1">
        <lane id="edge_1_1_to_2_1_0" index="0" speed="13.89" length="185.60" shape="207.20,198.40 392.80,198.40"/>
    </edge>
    <edge id="edge_1_2_to_0_2" from="node_1_2" to="node_0_2" priority="-1">
        <lane id="edge_1_2_to_0_2_0" index="0" speed="13.89" length="185.60" shape="192.80,401.60 7.20,401.60"/>
    </edge>
    <edge id="edge_1_2_to_1_1" from="node_1_2" to="node_1_1" priority="-1">
        <lane id="edge_1_2_to_1_1_0" index="0" speed="13.89" length="185.60" shape="198.40,392.80 198.40,207.20"/>
    </edge>
    <edge id="edge_1_2_to_1_3" from="node_1_2" to="node_1_3" priority="-1">
        <lane id="edge_1_2_to_1_3_0" index="0" speed="13.89" length="185.60" shape="201.60,407.20 201.60,592.80"/>
    </edge>
    <edge id="edge_1_2_to_2_2" from="node_1_2" to="node_2_2" priority="-1">
        <lane id="edge_1_2_to_2_2_0" index="0" speed="13.89" length="185.60" shape="207.20,398.40 392.80,398.40"/>
    </edge>
    <edge id="edge_1_3_to_0_3" from="node_1_3" to="node_0_3" priority="-1">