<configuration xmlns:xsi="http://www.w3.org/2001/XMLSchema-instance" xsi:noNamespaceSchemaLocation="http://sumo.dlr.de/xsd/sumoConfiguration.xsd">

    <input>
        <net-file value="acosta_buslanes.net.xml" />
        <additional-files value="acosta_vtypes.add.xml,acosta_detectors.add.xml,acosta_bus_stops.add.xml,acosta_tls.add.xml" />
    <route-files value="route_mixed_episode_376.rou.xml" /></input>

    <output>
        <tripinfo-output value="tripinfos.xml" />
    </output>

    <report>
        <log value="sumo_log.txt" />
        <no-step-log value="true" />
    </report>

    <gui_only>
        <gui-settings-file value="settings.gui.xml" />
    </gui_only>

</configuration>