<?xml version="1.0" encoding="UTF-8"?>

<!-- generated on 2025-04-18 11:49:28.744650 by randomTrips.py v1_22_0+0002-63e50f52594
<configuration>
    <net-file value="acosta_buslanes.net.xml"/>
    <route-file value="temp_route_heavy.rou.xml"/>
    <fringe-factor value="15.0"/>
    <min-distance value="200.0"/>
    <max-distance value="4000.0"/>
    <validate value="True"/>
    <period value="0.8"/>
    <random-depart value="True"/>
</configuration>
-->

<!-- generated on 2025-04-18 11:49:28 by Eclipse SUMO duarouter Version 1.22.0
<duarouterConfiguration xmlns:xsi="http://www.w3.org/2001/XMLSchema-instance" xsi:noNamespaceSchemaLocation="http://sumo.dlr.de/xsd/duarouterConfiguration.xsd">

    <input>
        <net-file value="acosta_buslanes.net.xml"/>
        <route-files value="trips.trips.xml"/>
    </input>

    <output>
        <output-file value="trips.trips.xml.tmp"/>
        <alternatives-output value="NUL"/>
        <write-trips value="true"/>
    </output>

    <time>
        <begin value="0.0"/>
        <end value="3600.0"/>
    </time>

    <report>
        <no-warnings value="true"/>
        <ignore-errors value="true"/>
        <no-step-log value="true"/>
    </report>

</duarouterConfiguration>
-->

<routes xmlns:xsi="http://www.w3.org/2001/XMLSchema-instance" xsi:noNamespaceSchemaLocation="http://sumo.dlr.de/xsd/routes_file.xsd">
    <trip id="0" depart="0.20" from="66" to="77[1][1]"/>
    <trip id="1" depart="0.40" from="135" to="204[1][1]"/>
    <trip id="2" depart="1.20" from="210" to="77[1][1]"/>
    <trip id="3" depart="1.20" from="181" to="204[1][1]"/>
    <trip id="4" depart="2.40" from="56a" to="134"/>
    <trip id="5" depart="2.40" from="9" to="28"/>
    <trip id="6" depart="4.20" from="m1" to="138"/>
    <trip id="7" depart="4.40" from="119" to="209"/>
    <trip id="8" depart="6.20" from="78[0]" to="134b"/>
    <trip id="9" depart="6.40" from="181" to="114"/>
    <trip id="10" depart="10.40" from="194" to="77[1][1]"/>
    <trip id="11" depart="11.00" from="133" to="54"/>
    <trip id="12" depart="11.60" from="42" to="113"/>
    <trip id="13" depart="14.00" from="46" to="44"/>
    <trip id="14" depart="14.60" from="165" to="28"/>
    <trip id="15" depart="14.80" from="56b" to="49"/>
    <trip id="16" depart="15.80" from="165" to="136"/>
    <trip id="17" depart="17.60" from="133" to="86"/>
    <trip id="18" depart="19.20" from="219" to="134b"/>
    <trip id="19" depart="20.00" from="165" to="86"/>
    <trip id="20" depart="21.20" from="68" to="30"/>
    <trip id="22" depart="26.20" from="8" to="28"/>
    <trip id="23" depart="27.00" from="125" to="114"/>
    <trip id="24" depart="27.00" from="8" to="114"/>
    <trip id="25" depart="29.00" from="2" to="124"/>
    <trip id="26" depart="29.00" from="20001+87[1][0]" to="4c"/>
    <trip id="27" depart="29.80" from="8" to="41"/>
    <trip id="29" depart="32.80" from="195" to="204[1][1]"/>
    <trip id="30" depart="33.00" from="137" to="54"/>
    <trip id="31" depart="33.40" from="83" to="54"/>
    <trip id="32" depart="34.60" from="22" to="127"/>
    <trip id="33" depart="34.60" from="67" to="4c"/>
    <trip id="35" depart="36.60" from="224[0]" to="54"/>
    <trip id="36" depart="36.80" from="210" to="86"/>
    <trip id="37" depart="37.60" from="134" to="77[1][1]"/>
    <trip id="38" depart="37.60" from="165" to="206"/>
    <trip id="39" depart="38.40" from="135" to="79"/>
    <trip id="40" depart="38.40" from="191" to="72[0]"/>
    <trip id="41" depart="39.00" from="189[1][1]" to="26"/>
    <trip id="42" depart="39.20" from="131" to="134b"/>
    <trip id="43" depart="39.40" from="210" to="65"/>
    <trip id="44" depart="41.80" from="165" to="204[1][1]"/>
    <trip id="45" depart="43.40" from="220b" to="26"/>
    <trip id="46" depart="43.80" from="133" to="3"/>
    <trip id="47" depart="46.80" from="131" to="201c"/>
    <trip id="49" depart="46.80" from="153" to="17"/>
    <trip id="50" depart="48.60" from="135" to="26"/>
    <trip id="51" depart="48.80" from="131" to="138"/>
    <trip id="53" depart="50.40" from="9" to="30"/>
    <trip id="54" depart="50.80" from="195" to="4c"/>
    <trip id="55" depart="51.20" from="135" to="49"/>
    <trip id="56" depart="51.20" from="40" to="4c"/>
    <trip id="57" depart="52.80" from="78[0]" to="134b"/>
    <trip id="58" depart="53.20" from="220b" to="204[1][1]"/>
    <trip id="60" depart="56.40" from="180" to="211"/>
    <trip id="61" depart="56.60" from="220b" to="49"/>
    <trip id="62" depart="57.40" from="220b" to="60"/>
    <trip id="63" depart="57.60" from="19" to="46"/>
    <trip id="64" depart="60.60" from="131" to="138"/>
    <trip id="65" depart="60.60" from="133" to="30"/>
    <trip id="66" depart="64.60" from="45" to="60"/>
    <trip id="67" depart="66.40" from="45" to="49"/>
    <trip id="68" depart="68.40" from="203[1]b" to="200"/>
    <trip id="69" depart="68.40" from="224[0]" to="222"/>
    <trip id="70" depart="69.00" from="137" to="77[1][1]"/>
    <trip id="71" depart="70.60" from="171" to="58[1]"/>
    <trip id="72" depart="70.80" from="25" to="80"/>
    <trip id="73" depart="72.00" from="85" to="4c"/>
    <trip id="74" depart="75.60" from="80" to="97"/>
    <trip id="75" depart="76.20" from="211" to="66"/>
    <trip id="76" depart="76.40" from="78[0]" to="114"/>
    <trip id="77" depart="76.40" from="8" to="86"/>
    <trip id="79" depart="77.80" from="89[1][1]" to="134b"/>
    <trip id="80" depart="79.40" from="165" to="114"/>
    <trip id="81" depart="79.40" from="203[0]" to="30"/>
    <trip id="82" depart="79.40" from="224[0]" to="4c"/>
    <trip id="84" depart="80.60" from="137" to="136"/>
    <trip id="85" depart="81.80" from="133" to="3"/>
    <trip id="86" depart="81.80" from="78[0]" to="204b[0]"/>
    <trip id="87" depart="82.40" from="203[0]" to="20"/>
    <trip id="88" depart="83.20" from="8" to="134b"/>
    <trip id="89" depart="84.60" from="109[0]" to="48"/>
    <trip id="90" depart="86.20" from="134" to="77[1][1]"/>
    <trip id="91" depart="87.60" from="224[1]" to="87[1][1]"/>
    <trip id="92" depart="89.00" from="69" to="71"/>
    <trip id="93" depart="90.80" from="8" to="4c"/>
    <trip id="94" depart="93.60" from="85" to="4"/>
    <trip id="96" depart="97.00" from="75" to="209"/>
    <trip id="98" depart="99.60" from="103" to="26"/>
    <trip id="99" depart="101.20" from="38" to="4c"/>
    <trip id="100" depart="102.60" from="165" to="84"/>
    <trip id="101" depart="102.60" from="220b" to="114"/>
    <trip id="102" depart="105.20" from="12" to="26"/>
    <trip id="103" depart="105.20" from="195" to="30"/>
    <trip id="104" depart="106.80" from="85" to="120"/>
    <trip id="105" depart="107.60" from="38" to="28"/>
    <trip id="106" depart="107.60" from="78[0]" to="54"/>
    <trip id="107" depart="109.60" from="165" to="28"/>
    <trip id="108" depart="110.40" from="16" to="42"/>
    <trip id="109" depart="111.40" from="25" to="49"/>
    <trip id="110" depart="112.20" from="25" to="28"/>
    <trip id="111" depart="115.00" from="8" to="28"/>
    <trip id="113" depart="117.20" from="8" to="30"/>
    <trip id="114" depart="117.40" from="194" to="204[1][1]"/>
    <trip id="115" depart="118.80" from="135" to="4c"/>
    <trip id="116" depart="119.40" from="220b" to="201c"/>
    <trip id="117" depart="120.00" from="58[1]" to="188"/>
    <trip id="118" depart="120.00" from="224[0]" to="30"/>
    <trip id="119" depart="120.40" from="220b" to="49"/>
    <trip id="120" depart="120.60" from="165" to="54"/>
    <trip id="121" depart="120.60" from="116" to="26"/>
    <trip id="123" depart="125.00" from="58[1]" to="18"/>
    <trip id="124" depart="127.20" from="224[0]" to="191"/>
    <trip id="125" depart="127.20" from="165" to="54"/>
    <trip id="126" depart="127.20" from="220b" to="77[1][1]"/>
    <trip id="127" depart="127.40" from="40" to="49"/>
    <trip id="128" depart="127.60" from="195" to="136"/>
    <trip id="129" depart="128.60" from="58[0]" to="160"/>
    <trip id="130" depart="129.60" from="135" to="28"/>
    <trip id="131" depart="130.40" from="118" to="91"/>
    <trip id="132" depart="130.60" from="85" to="30"/>
    <trip id="133" depart="132.00" from="75" to="60"/>
    <trip id="134" depart="132.20" from="44" to="219"/>
    <trip id="135" depart="132.40" from="2" to="49"/>
    <trip id="136" depart="132.60" from="37" to="136"/>
    <trip id="137" depart="133.00" from="220b" to="62"/>
    <trip id="138" depart="133.40" from="13" to="189[0]"/>
    <trip id="139" depart="133.40" from="74" to="114"/>
    <trip id="140" depart="137.00" from="206" to="26"/>
    <trip id="141" depart="137.80" from="210" to="86"/>
    <trip id="142" depart="138.80" from="83" to="16"/>
    <trip id="143" depart="141.00" from="25" to="209"/>
    <trip id="144" depart="141.00" from="165" to="28"/>
    <trip id="145" depart="142.80" from="203[0]" to="20"/>
    <trip id="146" depart="144.20" from="66" to="209"/>
    <trip id="147" depart="144.40" from="188" to="28"/>
    <trip id="148" depart="146.60" from="85" to="134"/>
    <trip id="149" depart="146.80" from="212" to="204[1][1]"/>
    <trip id="150" depart="147.20" from="78[0]" to="35"/>
    <trip id="151" depart="147.40" from="224[0]" to="19"/>
    <trip id="152" depart="150.20" from="165" to="60"/>
    <trip id="153" depart="151.60" from="165" to="30"/>
    <trip id="155" depart="152.60" from="159" to="49"/>
    <trip id="156" depart="153.00" from="56a" to="28"/>
    <trip id="158" depart="154.40" from="186" to="104"/>
    <trip id="159" depart="154.80" from="103" to="116"/>
    <trip id="160" depart="154.80" from="203[0]" to="28"/>
    <trip id="161" depart="155.20" from="25" to="204[1][1]"/>
    <trip id="162" depart="155.40" from="36" to="18"/>
    <trip id="163" depart="156.00" from="118" to="39"/>
    <trip id="164" depart="156.20" from="13" to="30"/>
    <trip id="165" depart="157.60" from="8" to="138"/>
    <trip id="166" depart="158.80" from="220b" to="134b"/>
    <trip id="167" depart="159.00" from="85" to="124"/>
    <trip id="168" depart="160.20" from="220b" to="209"/>
    <trip id="169" depart="161.00" from="50" to="48"/>
    <trip id="170" depart="161.60" from="68" to="138"/>
    <trip id="171" depart="162.40" from="133" to="138"/>
    <trip id="172" depart="162.80" from="17" to="49"/>
    <trip id="174" depart="163.00" from="m2" to="54"/>
    <trip id="175" depart="163.20" from="25" to="49"/>
    <trip id="176" depart="163.20" from="56a" to="181"/>
    <trip id="177" depart="164.00" from="58[0]" to="194"/>
    <trip id="179" depart="165.80" from="72[0]" to="136"/>
    <trip id="180" depart="168.00" from="131" to="89[1][1]"/>
    <trip id="181" depart="168.60" from="137" to="209"/>
    <trip id="182" depart="170.60" from="224[0]" to="134b"/>
    <trip id="184" depart="171.60" from="220b" to="134b"/>
    <trip id="185" depart="172.40" from="203[0]" to="186"/>
    <trip id="186" depart="173.40" from="37" to="54"/>
    <trip id="187" depart="173.60" from="109[1][1]" to="26"/>
    <trip id="188" depart="173.80" from="224[0]" to="1"/>
    <trip id="189" depart="174.20" from="12" to="209"/>
    <trip id="190" depart="174.40" from="135" to="204[1][1]"/>
    <trip id="192" depart="178.40" from="3" to="54"/>
    <trip id="193" depart="178.60" from="37" to="60"/>
    <trip id="194" depart="179.40" from="131" to="15"/>
    <trip id="195" depart="179.80" from="2" to="49"/>
    <trip id="196" depart="180.60" from="57[1]" to="134b"/>
    <trip id="197" depart="181.40" from="212" to="97"/>
    <trip id="198" depart="181.60" from="194" to="201c"/>
    <trip id="200" depart="185.00" from="224[0]" to="209"/>
    <trip id="201" depart="185.20" from="78[0]" to="204[1][1]"/>
    <trip id="202" depart="185.60" from="78[0]" to="54"/>
    <trip id="203" depart="186.40" from="165" to="138"/>
    <trip id="204" depart="186.40" from="218" to="86"/>
    <trip id="205" depart="186.60" from="24" to="201"/>
    <trip id="208" depart="188.20" from="137" to="114"/>
    <trip id="210" depart="188.60" from="153" to="209"/>
    <trip id="211" depart="189.60" from="62" to="45"/>
    <trip id="212" depart="190.20" from="210" to="86"/>
    <trip id="213" depart="190.40" from="72[0]" to="86"/>
    <trip id="214" depart="190.40" from="109[1][0]+20003" to="204[1][1]"/>
    <trip id="215" depart="192.00" from="195" to="4c"/>
    <trip id="216" depart="192.60" from="202" to="138"/>
    <trip id="217" depart="195.80" from="224[0]" to="28"/>
    <trip id="218" depart="195.80" from="85" to="75"/>
    <trip id="219" depart="197.00" from="212" to="54"/>
    <trip id="220" depart="198.00" from="14" to="118"/>
    <trip id="222" depart="200.40" from="109[1][1]" to="77[1][1]"/>
    <trip id="223" depart="200.80" from="224[0]" to="17"/>
    <trip id="224" depart="201.00" from="224[0]" to="109[1][0]+20003"/>
    <trip id="225" depart="201.00" from="224[0]" to="77[1][1]"/>
    <trip id="226" depart="201.60" from="75" to="134"/>
    <trip id="227" depart="203.80" from="220b" to="60"/>
    <trip id="228" depart="205.00" from="133" to="30"/>
    <trip id="229" depart="205.40" from="224[0]" to="114"/>
    <trip id="230" depart="205.40" from="137" to="204[1][1]"/>
    <trip id="231" depart="205.60" from="78[0]" to="54"/>
    <trip id="233" depart="206.80" from="25" to="28"/>
    <trip id="234" depart="207.40" from="189[1][0]+20000" to="86"/>
    <trip id="235" depart="207.60" from="137" to="114"/>
    <trip id="236" depart="207.80" from="135" to="114"/>
    <trip id="237" depart="208.40" from="165" to="54"/>
    <trip id="238" depart="210.00" from="135" to="209"/>
    <trip id="239" depart="210.20" from="135" to="17"/>
    <trip id="240" depart="210.40" from="220b" to="134b"/>
    <trip id="241" depart="213.40" from="61" to="42"/>
    <trip id="242" depart="213.60" from="195" to="136"/>
    <trip id="243" depart="213.80" from="8" to="120"/>
    <trip id="244" depart="214.20" from="103" to="84"/>
    <trip id="245" depart="215.60" from="3" to="30"/>
    <trip id="246" depart="217.00" from="165" to="4c"/>
    <trip id="247" depart="219.20" from="62" to="26"/>
    <trip id="248" depart="219.40" from="133" to="136"/>
    <trip id="250" depart="221.40" from="153" to="136"/>
    <trip id="251" depart="222.20" from="25" to="30"/>
    <trip id="252" depart="222.60" from="34" to="36"/>
    <trip id="253" depart="223.60" from="173" to="21b"/>
    <trip id="254" depart="223.60" from="219" to="138"/>
    <trip id="255" depart="223.80" from="93" to="89[0]"/>
    <trip id="256" depart="224.80" from="224[0]" to="72[0]"/>
    <trip id="257" depart="225.00" from="93" to="26"/>
    <trip id="258" depart="225.80" from="206" to="40"/>
    <trip id="259" depart="227.80" from="137" to="114"/>
    <trip id="260" depart="229.00" from="133" to="136"/>
    <trip id="261" depart="229.20" from="210" to="136"/>
    <trip id="262" depart="229.40" from="83" to="114"/>
    <trip id="263" depart="229.40" from="195" to="138"/>
    <trip id="264" depart="229.60" from="161" to="38"/>
    <trip id="266" depart="229.80" from="133" to="114"/>
    <trip id="267" depart="230.00" from="212" to="136"/>
    <trip id="269" depart="231.40" from="131" to="16"/>
    <trip id="270" depart="236.40" from="203[0]" to="30"/>
    <trip id="271" depart="237.20" from="203[0]" to="54"/>
    <trip id="272" depart="237.80" from="8" to="153"/>
    <trip id="273" depart="237.80" from="133" to="153"/>
    <trip id="274" depart="238.40" from="137" to="77[1][1]"/>
    <trip id="275" depart="239.60" from="131" to="30"/>
    <trip id="277" depart="240.20" from="137" to="35"/>
    <trip id="278" depart="240.40" from="135" to="209"/>
    <trip id="280" depart="241.60" from="195" to="189[1][1]"/>
    <trip id="281" depart="242.00" from="195" to="114"/>
    <trip id="282" depart="242.40" from="220" to="197"/>
    <trip id="284" depart="244.80" from="203[0]" to="54"/>
    <trip id="285" depart="245.60" from="137" to="20001+87[1][0]"/>
    <trip id="286" depart="246.40" from="135" to="59"/>
    <trip id="287" depart="246.60" from="85" to="77[1][1]"/>
    <trip id="288" depart="246.60" from="220b" to="28"/>
    <trip id="289" depart="247.00" from="137" to="219"/>
    <trip id="290" depart="247.60" from="212" to="72[0]"/>
    <trip id="291" depart="248.00" from="137" to="26"/>
    <trip id="293" depart="249.00" from="203[0]" to="77[1][1]"/>
    <trip id="295" depart="249.40" from="137" to="84"/>
    <trip id="296" depart="252.20" from="85" to="78[1][1]"/>
    <trip id="297" depart="252.20" from="8" to="21b"/>
    <trip id="298" depart="253.00" from="122" to="97"/>
    <trip id="299" depart="253.40" from="39" to="26"/>
    <trip id="300" depart="255.80" from="203[0]" to="209"/>
    <trip id="301" depart="256.20" from="71" to="4c"/>
    <trip id="302" depart="258.60" from="131" to="26"/>
    <trip id="303" depart="258.60" from="131" to="54"/>
    <trip id="304" depart="259.20" from="25" to="211"/>
    <trip id="305" depart="259.20" from="137" to="204a[0]"/>
    <trip id="306" depart="259.80" from="153" to="m90"/>
    <trip id="307" depart="260.80" from="109[1][0]+20003" to="49"/>
    <trip id="309" depart="261.60" from="220" to="30"/>
    <trip id="310" depart="261.60" from="133" to="4c"/>
    <trip id="311" depart="261.80" from="135" to="77[1][1]"/>
    <trip id="312" depart="262.20" from="224[0]" to="4c"/>
    <trip id="314" depart="264.20" from="2" to="4c"/>
    <trip id="315" depart="265.60" from="212" to="20002+89[1][0]"/>
    <trip id="316" depart="267.80" from="44" to="4c"/>
    <trip id="317" depart="268.20" from="220b" to="30"/>
    <trip id="318" depart="269.00" from="137" to="49"/>
    <trip id="319" depart="269.80" from="224[0]" to="204[1][1]"/>
    <trip id="320" depart="269.80" from="85" to="28"/>
    <trip id="321" depart="270.00" from="8" to="206"/>
    <trip id="322" depart="271.20" from="127" to="209"/>
    <trip id="323" depart="271.80" from="206" to="114"/>
    <trip id="324" depart="273.20" from="195" to="48"/>
    <trip id="325" depart="274.40" from="25" to="30"/>
    <trip id="326" depart="275.40" from="56b" to="134b"/>
    <trip id="327" depart="275.80" from="195" to="28"/>
    <trip id="328" depart="276.40" from="224[0]" to="54"/>
    <trip id="329" depart="276.60" from="44" to="75"/>
    <trip id="330" depart="276.60" from="25" to="54"/>
    <trip id="331" depart="277.00" from="48" to="204[1][1]"/>
    <trip id="332" depart="277.20" from="8" to="26"/>
    <trip id="333" depart="277.60" from="203[0]" to="114"/>
    <trip id="335" depart="278.00" from="210" to="60"/>
    <trip id="336" depart="278.80" from="210" to="28"/>
    <trip id="337" depart="279.00" from="203[1]b" to="209"/>
    <trip id="338" depart="280.60" from="25" to="4c"/>
    <trip id="339" depart="280.60" from="89[1][1]" to="77[1][1]"/>
    <trip id="340" depart="280.80" from="135" to="77[1][1]"/>
    <trip id="341" depart="281.20" from="135" to="86"/>
    <trip id="342" depart="282.00" from="131" to="136"/>
    <trip id="343" depart="282.60" from="133" to="136"/>
    <trip id="344" depart="283.20" from="135" to="138"/>
    <trip id="345" depart="284.60" from="85" to="113"/>
    <trip id="346" depart="284.60" from="203[0]" to="49"/>
    <trip id="347" depart="285.60" from="85" to="26"/>
    <trip id="348" depart="285.80" from="203[0]" to="54"/>
    <trip id="349" depart="288.00" from="11" to="138"/>
    <trip id="350" depart="290.00" from="11" to="60"/>
    <trip id="351" depart="290.40" from="78[0]" to="28"/>
    <trip id="352" depart="291.00" from="195" to="30"/>
    <trip id="353" depart="291.20" from="224[0]" to="57[1]"/>
    <trip id="354" depart="292.00" from="210" to="49"/>
    <trip id="356" depart="292.20" from="8" to="202"/>
    <trip id="357" depart="292.20" from="61" to="15"/>
    <trip id="358" depart="295.20" from="195" to="20"/>
    <trip id="359" depart="295.80" from="78[0]" to="136"/>
    <trip id="360" depart="297.00" from="165" to="86"/>
    <trip id="361" depart="297.00" from="212" to="138"/>
    <trip id="362" depart="297.40" from="135" to="4c"/>
    <trip id="363" depart="298.00" from="8" to="58[1]"/>
    <trip id="364" depart="298.00" from="135" to="134b"/>
    <trip id="365" depart="298.40" from="m1" to="30"/>
    <trip id="366" depart="298.80" from="203[0]" to="209"/>
    <trip id="367" depart="300.60" from="137" to="4c"/>
    <trip id="368" depart="300.60" from="25" to="89[0]"/>
    <trip id="370" depart="301.60" from="89[0]" to="28"/>
    <trip id="371" depart="301.80" from="133" to="114"/>
    <trip id="372" depart="302.20" from="85" to="54"/>
    <trip id="373" depart="302.40" from="85" to="84"/>
    <trip id="374" depart="303.40" from="135" to="87[0]"/>
    <trip id="375" depart="303.80" from="212" to="26"/>
    <trip id="376" depart="305.00" from="224[0]" to="20001+87[1][0]"/>
    <trip id="377" depart="306.40" from="8" to="86"/>
    <trip id="379" depart="307.20" from="25" to="60"/>
    <trip id="380" depart="308.80" from="37" to="82"/>
    <trip id="381" depart="311.00" from="195" to="134b"/>
    <trip id="382" depart="311.80" from="210" to="114"/>
    <trip id="383" depart="314.00" from="25" to="134b"/>
    <trip id="384" depart="315.00" from="113" to="38"/>
    <trip id="385" depart="315.20" from="137" to="204a[0]"/>
    <trip id="386" depart="318.20" from="19" to="34"/>
    <trip id="387" depart="318.80" from="137" to="28"/>
    <trip id="388" depart="318.80" from="58[0]" to="54"/>
    <trip id="389" depart="319.20" from="137" to="122"/>
    <trip id="390" depart="320.40" from="78[0]" to="49"/>
    <trip id="391" depart="321.00" from="85" to="89[0]"/>
    <trip id="392" depart="321.00" from="20002+89[1][0]" to="26"/>
    <trip id="393" depart="322.00" from="220b" to="26"/>
    <trip id="394" depart="323.20" from="201" to="4c"/>
    <trip id="395" depart="323.40" from="203[0]" to="209"/>
    <trip id="396" depart="323.60" from="109[0]" to="204[1][1]"/>
    <trip id="398" depart="323.80" from="21a" to="138"/>
    <trip id="399" depart="323.80" from="8" to="54"/>
    <trip id="401" depart="325.60" from="135" to="4c"/>
    <trip id="402" depart="326.40" from="8" to="4c"/>
    <trip id="403" depart="327.40" from="203[0]" to="60"/>
    <trip id="404" depart="327.60" from="220b" to="136"/>
    <trip id="405" depart="328.00" from="18" to="93"/>
    <trip id="406" depart="328.80" from="212" to="204[1][1]"/>
    <trip id="407" depart="329.20" from="85" to="30"/>
    <trip id="408" depart="330.20" from="195" to="103"/>
    <trip id="409" depart="330.60" from="224[0]" to="19"/>
    <trip id="411" depart="332.80" from="22" to="78[1][1]"/>
    <trip id="412" depart="335.20" from="137" to="60"/>
    <trip id="413" depart="335.60" from="165" to="26"/>
    <trip id="414" depart="335.60" from="75" to="201c"/>
    <trip id="415" depart="335.80" from="220b" to="26"/>
    <trip id="416" depart="337.40" from="40" to="14"/>
    <trip id="417" depart="338.20" from="61" to="136"/>
    <trip id="418" depart="338.40" from="173" to="44"/>
    <trip id="419" depart="340.00" from="224[0]" to="134b"/>
    <trip id="420" depart="342.20" from="25" to="20"/>
    <trip id="421" depart="345.80" from="135" to="77[1][1]"/>
    <trip id="422" depart="346.40" from="224[0]" to="114"/>
    <trip id="423" depart="347.40" from="50" to="26"/>
    <trip id="424" depart="347.60" from="87[0]" to="31"/>
    <trip id="425" depart="347.60" from="195" to="26"/>
    <trip id="426" depart="348.40" from="203[0]" to="186"/>
    <trip id="427" depart="348.60" from="25" to="87[1][1]"/>
    <trip id="428" depart="349.00" from="74" to="209"/>
    <trip id="429" depart="351.00" from="39" to="109[1][1]"/>
    <trip id="430" depart="351.00" from="165" to="30"/>
    <trip id="432" depart="351.80" from="25" to="204a[0]"/>
    <trip id="433" depart="353.20" from="127" to="204b[0]"/>
    <trip id="434" depart="355.00" from="224[0]" to="86"/>
    <trip id="437" depart="355.80" from="137" to="41"/>
    <trip id="438" depart="356.20" from="50" to="31"/>
    <trip id="439" depart="358.80" from="135" to="204[1][1]"/>
    <trip id="440" depart="359.00" from="188" to="65"/>
    <trip id="441" depart="359.20" from="66" to="19"/>
    <trip id="442" depart="360.40" from="25" to="206"/>
    <trip id="443" depart="360.40" from="212" to="204[1][1]"/>
    <trip id="445" depart="363.00" from="203[0]" to="82"/>
    <trip id="446" depart="365.00" from="135" to="138"/>
    <trip id="447" depart="365.40" from="210" to="60"/>
    <trip id="448" depart="366.00" from="65" to="30"/>
    <trip id="449" depart="366.80" from="25" to="86"/>
    <trip id="450" depart="368.60" from="78[0]" to="4c"/>
    <trip id="451" depart="369.40" from="25" to="60"/>
    <trip id="452" depart="370.00" from="203[0]" to="79"/>
    <trip id="453" depart="370.20" from="109[1][1]" to="204[1][1]"/>
    <trip id="454" depart="372.00" from="25" to="134b"/>
    <trip id="455" depart="373.60" from="203[0]" to="93"/>
    <trip id="456" depart="373.60" from="212" to="87[0]"/>
    <trip id="457" depart="374.80" from="135" to="202"/>
    <trip id="458" depart="375.20" from="42" to="134b"/>
    <trip id="459" depart="375.20" from="133" to="4c"/>
    <trip id="461" depart="376.80" from="137" to="9"/>
    <trip id="462" depart="378.40" from="203[0]" to="54"/>
    <trip id="463" depart="378.40" from="133" to="109[1][1]"/>
    <trip id="465" depart="379.80" from="137" to="114"/>
    <trip id="466" depart="380.20" from="224[1]" to="30"/>
    <trip id="467" depart="380.80" from="210" to="77[1][1]"/>
    <trip id="468" depart="381.00" from="122" to="201c"/>
    <trip id="469" depart="381.40" from="104" to="134"/>
    <trip id="470" depart="381.40" from="133" to="32"/>
    <trip id="471" depart="382.00" from="220b" to="138"/>
    <trip id="472" depart="382.80" from="25" to="114"/>
    <trip id="473" depart="383.00" from="134" to="54"/>
    <trip id="474" depart="387.00" from="165" to="30"/>
    <trip id="475" depart="389.00" from="195" to="69"/>
    <trip id="476" depart="390.40" from="58[0]" to="36"/>
    <trip id="477" depart="390.60" from="210" to="116"/>
    <trip id="478" depart="392.40" from="74" to="54"/>
    <trip id="479" depart="393.00" from="212" to="4c"/>
    <trip id="480" depart="394.60" from="85" to="136"/>
    <trip id="481" depart="395.20" from="44" to="10"/>
    <trip id="483" depart="396.60" from="83" to="67"/>
    <trip id="484" depart="397.00" from="210" to="4c"/>
    <trip id="485" depart="397.00" from="135" to="49"/>
    <trip id="486" depart="397.20" from="133" to="60"/>
    <trip id="488" depart="402.20" from="48" to="204[1][0]"/>
    <trip id="489" depart="402.40" from="210" to="28"/>
    <trip id="490" depart="405.40" from="210" to="204b[0]"/>
    <trip id="491" depart="405.60" from="165" to="4c"/>
    <trip id="492" depart="406.40" from="131" to="26"/>
    <trip id="495" depart="408.20" from="78[0]" to="15"/>
    <trip id="496" depart="409.60" from="203[0]" to="91"/>
    <trip id="497" depart="410.40" from="203[0]" to="69"/>
    <trip id="498" depart="410.60" from="8" to="60"/>
    <trip id="499" depart="411.00" from="85" to="209"/>
    <trip id="500" depart="411.60" from="109[0]" to="49"/>
    <trip id="501" depart="413.40" from="25" to="209"/>
    <trip id="502" depart="413.80" from="212" to="49"/>
    <trip id="503" depart="414.00" from="133" to="209"/>
    <trip id="504" depart="414.40" from="25" to="89[0]"/>
    <trip id="505" depart="415.20" from="41" to="77[1][1]"/>
    <trip id="506" depart="416.20" from="135" to="206"/>
    <trip id="507" depart="418.00" from="78[0]" to="209"/>
    <trip id="509" depart="419.40" from="210" to="54"/>
    <trip id="510" depart="420.20" from="51" to="30"/>
    <trip id="511" depart="420.40" from="45" to="60"/>
    <trip id="512" depart="421.40" from="85" to="204[1][1]"/>
    <trip id="513" depart="421.80" from="25" to="86"/>
    <trip id="514" depart="422.40" from="93" to="26"/>
    <trip id="516" depart="423.80" from="133" to="26"/>
    <trip id="517" depart="424.00" from="137" to="86"/>
    <trip id="519" depart="426.40" from="78[0]" to="26"/>
    <trip id="520" depart="428.40" from="116" to="136"/>
    <trip id="521" depart="428.40" from="220b" to="204[1][1]"/>
    <trip id="522" depart="432.00" from="173" to="4"/>
    <trip id="523" depart="432.20" from="48" to="49"/>
    <trip id="524" depart="432.40" from="212" to="26"/>
    <trip id="525" depart="435.00" from="210" to="20001+87[1][0]"/>
    <trip id="526" depart="435.60" from="210" to="26"/>
    <trip id="527" depart="436.40" from="212" to="60"/>
    <trip id="528" depart="436.80" from="212" to="109[1][1]"/>
    <trip id="529" depart="438.00" from="50" to="97"/>
    <trip id="530" depart="438.20" from="8" to="134b"/>
    <trip id="531" depart="438.40" from="203[1]" to="68"/>
    <trip id="532" depart="438.80" from="203[0]" to="114"/>
    <trip id="533" depart="439.60" from="135" to="49"/>
    <trip id="534" depart="440.00" from="57[1]" to="77[1][1]"/>
    <trip id="536" depart="442.40" from="186" to="209"/>
    <trip id="537" depart="442.80" from="50" to="30"/>
    <trip id="538" depart="443.20" from="210" to="3"/>
    <trip id="539" depart="444.60" from="212" to="24"/>
    <trip id="540" depart="445.20" from="21a" to="136"/>
    <trip id="541" depart="446.80" from="13" to="189[0]"/>
    <trip id="542" depart="447.00" from="220b" to="209"/>
    <trip id="543" depart="447.20" from="25" to="54"/>
    <trip id="544" depart="447.20" from="165" to="114"/>
    <trip id="545" depart="447.40" from="220b" to="134b"/>
    <trip id="546" depart="448.80" from="195" to="60"/>
    <trip id="547" depart="449.80" from="220b" to="54"/>
    <trip id="548" depart="450.80" from="224[0]" to="209"/>
    <trip id="550" depart="452.80" from="203[0]" to="114"/>
    <trip id="551" depart="454.60" from="186" to="124"/>
    <trip id="552" depart="455.20" from="25" to="75"/>
    <trip id="553" depart="456.60" from="133" to="136"/>
    <trip id="554" depart="458.40" from="212" to="114"/>
    <trip id="556" depart="462.80" from="212" to="22"/>