<?xml version="1.0" encoding="UTF-8"?>

<!-- generated on 2025-04-27 19:37:26 by Eclipse SUMO netconvert Version 1.22.0
<netconvertConfiguration xmlns:xsi="http://www.w3.org/2001/XMLSchema-instance" xsi:noNamespaceSchemaLocation="http://sumo.dlr.de/xsd/netconvertConfiguration.xsd">

    <input>
        <sumo-net-file value="curriculum_scenarios\spider_6arms_2lane\spider_6arms_2lane_base.net.xml"/>
    </input>

    <output>
        <output-file value="curriculum_scenarios\spider_6arms_2lane\spider_6arms_2lane.net.xml"/>
    </output>

    <processing>
        <geometry.min-radius.fix.railways value="false"/>
        <geometry.max-grade.fix value="false"/>
        <offset.disable-normalization value="true"/>
        <lefthand value="0"/>
    </processing>

    <tls_building>
        <tls.guess value="true"/>
        <tls.guess.threshold value="1"/>
        <tls.green.time value="30"/>
        <tls.yellow.time value="4"/>
        <tls.red.time value="1"/>
    </tls_building>

    <junctions>
        <no-turnarounds value="true"/>
        <junctions.corner-detail value="5"/>
        <junctions.limit-turn-speed value="5.50"/>
        <rectangular-lane-cut value="0"/>
    </junctions>

    <pedestrian>
        <walkingareas value="0"/>
    </pedestrian>

</netconvertConfiguration>
-->

<net version="1.20" junctionCornerDetail="5" limitTurnSpeed="5.50" xmlns:xsi="http://www.w3.org/2001/XMLSchema-instance" xsi:noNamespaceSchemaLocation="http://sumo.dlr.de/xsd/net_file.xsd">

    <location netOffset="300.00,259.81" convBoundary="0.00,0.00,600.00,519.62" origBoundary="-300.00,-259.81,300.00,259.81" projParameter="!"/>

    <edge id=":A1_0" function="internal">
        <lane id=":A1_0_0" index="0" speed="5.67" length="9.24" shape="303.39,275.27 301.69,273.08 300.00,272.34 298.31,273.08 296.61,275.27"/>
    </edge>
    <edge id=":A1_1" function="internal">
        <lane id=":A1_1_0" index="0" speed="12.70" length="22.40" shape="303.39,275.27 299.92,270.61 295.69,267.28 290.69,265.28 284.91,264.61"/>
    </edge>
    <edge id=":A1_2" function="internal">
        <lane id=":A1_2_0" index="0" speed="13.89" length="30.17" shape="303.39,275.27 288.30,249.15"/>
        <lane id=":A1_2_1" index="1" speed="13.89" length="30.17" shape="306.16,273.67 291.07,247.55"/>
    </edge>
    <edge id=":A1_4" function="internal">
        <lane id=":A1_4_0" index="0" speed="13.89" length="6.15" shape="306.16,273.67 303.71,268.03"/>
    </edge>
    <edge id=":A1_5" function="internal">
        <lane id=":A1_5_0" index="0" speed="8.80" length="5.36" shape="306.16,273.67 304.11,268.72"/>
    </edge>
    <edge id=":A1_6" function="internal">
        <lane id=":A1_6_0" index="0" speed="3.65" length="1.44" shape="306.16,273.67 306.25,272.23"/>
    </edge>
    <edge id=":A1_42" function="internal">
        <lane id=":A1_42_0" index="0" speed="13.89" length="22.96" shape="303.71,268.03 303.16,266.74 302.15,259.81 303.16,252.88 306.16,245.95"/>
    </edge>
    <edge id=":A1_43" function="internal">
        <lane id=":A1_43_0" index="0" speed="8.80" length="19.01" shape="304.11,268.72 303.37,266.91 303.92,262.08 307.83,259.18 315.09,258.21"/>
    </edge>
    <edge id=":A1_44" function="internal">
        <lane id=":A1_44_0" index="0" speed="3.65" length="3.23" shape="306.25,272.23 306.74,271.49 307.64,271.43 308.93,272.07"/>
    </edge>
    <edge id=":A1_7" function="internal">
        <lane id=":A1_7_0" index="0" speed="5.67" length="9.24" shape="315.09,264.61 312.33,264.98 310.85,266.08 310.64,267.91 311.70,270.47"/>
    </edge>
    <edge id=":A1_8" function="internal">
        <lane id=":A1_8_0" index="0" speed="12.70" length="22.40" shape="315.09,264.61 309.31,265.28 304.31,267.28 300.08,270.61 296.61,275.27"/>
    </edge>
    <edge id=":A1_9" function="internal">
        <lane id=":A1_9_0" index="0" speed="13.89" length="30.17" shape="315.09,264.61 284.91,264.61"/>
        <lane id=":A1_9_1" index="1" speed="13.89" length="30.17" shape="315.09,261.41 284.91,261.41"/>
    </edge>
    <edge id=":A1_11" function="internal">
        <lane id=":A1_11_0" index="0" speed="13.89" length="6.15" shape="315.09,261.41 308.97,260.70"/>
    </edge>
    <edge id=":A1_12" function="internal">
        <lane id=":A1_12_0" index="0" speed="8.80" length="5.36" shape="315.09,261.41 309.77,260.70"/>
    </edge>
    <edge id=":A1_13" function="internal">
        <lane id=":A1_13_0" index="0" speed="3.65" length="1.44" shape="315.09,261.41 313.89,260.61"/>
    </edge>
    <edge id=":A1_45" function="internal">
        <lane id=":A1_45_0" index="0" speed="13.89" length="22.96" shape="308.97,260.70 307.58,260.54 301.08,257.94 295.57,253.61 291.07,247.55"/>
    </edge>
    <edge id=":A1_46" function="internal">
        <lane id=":A1_46_0" index="0" speed="8.80" length="19.01" shape="309.77,260.70 307.83,260.44 303.92,257.54 303.37,252.71 306.16,245.95"/>
    </edge>
    <edge id=":A1_47" function="internal">
        <lane id=":A1_47_0" index="0" speed="3.65" length="3.23" shape="313.89,260.61 313.49,259.81 313.89,259.01 315.09,258.21"/>
    </edge>
    <edge id=":A1_14" function="internal">
        <lane id=":A1_14_0" index="0" speed="5.67" length="9.24" shape="311.70,249.15 310.64,251.71 310.85,253.54 312.33,254.64 315.09,255.01"/>
    </edge>
    <edge id=":A1_15" function="internal">
        <lane id=":A1_15_0" index="0" speed="12.70" length="22.40" shape="311.70,249.15 309.39,254.48 308.62,259.81 309.39,265.14 311.70,270.47"/>
    </edge>
    <edge id=":A1_16" function="internal">
        <lane id=":A1_16_0" index="0" speed="13.89" length="30.17" shape="311.70,249.15 296.61,275.27"/>
        <lane id=":A1_16_1" index="1" speed="13.89" length="30.17" shape="308.93,247.55 293.84,273.67"/>
    </edge>
    <edge id=":A1_18" function="internal">
        <lane id=":A1_18_0" index="0" speed="13.89" length="6.15" shape="308.93,247.55 305.26,252.49"/>
    </edge>
    <edge id=":A1_19" function="internal">
        <lane id=":A1_19_0" index="0" speed="8.81" length="5.36" shape="308.93,247.55 305.66,251.79"/>
    </edge>
    <edge id=":A1_20" function="internal">
        <lane id=":A1_20_0" index="0" speed="3.65" length="1.44" shape="308.93,247.55 307.64,248.19"/>
    </edge>
    <edge id=":A1_48" function="internal">
        <lane id=":A1_48_0" index="0" speed="13.89" length="22.96" shape="305.26,252.49 304.43,253.61 298.92,257.94 292.42,260.54 284.91,261.41"/>
    </edge>
    <edge id=":A1_49" function="internal">
        <lane id=":A1_49_0" index="0" speed="8.81" length="19.01" shape="305.66,251.79 304.46,253.34 300.00,255.28 295.54,253.34 291.07,247.55"/>
    </edge>
    <edge id=":A1_50" function="internal">
        <lane id=":A1_50_0" index="0" speed="3.65" length="3.23" shape="307.64,248.19 306.74,248.13 306.25,247.39 306.16,245.95"/>
    </edge>
    <edge id=":A1_21" function="internal">
        <lane id=":A1_21_0" index="0" speed="5.67" length="9.24" shape="296.61,244.35 298.31,246.54 300.00,247.28 301.69,246.54 303.39,244.35"/>
    </edge>
    <edge id=":A1_22" function="internal">
        <lane id=":A1_22_0" index="0" speed="12.70" length="22.40" shape="296.61,244.35 300.08,249.01 304.31,252.34 309.31,254.34 315.09,255.01"/>
    </edge>
    <edge id=":A1_23" function="internal">
        <lane id=":A1_23_0" index="0" speed="13.89" length="30.17" shape="296.61,244.35 311.70,270.47"/>
        <lane id=":A1_23_1" index="1" speed="13.89" length="30.17" shape="293.84,245.95 308.93,272.07"/>
    </edge>
    <edge id=":A1_25" function="internal">
        <lane id=":A1_25_0" index="0" speed="13.89" length="6.15" shape="293.84,245.95 296.29,251.59"/>
    </edge>
    <edge id=":A1_26" function="internal">
        <lane id=":A1_26_0" index="0" speed="8.80" length="5.36" shape="293.84,245.95 295.89,250.90"/>
    </edge>
    <edge id=":A1_27" function="internal">
        <lane id=":A1_27_0" index="0" speed="3.65" length="1.44" shape="293.84,245.95 293.75,247.39"/>
    </edge>
    <edge id=":A1_51" function="internal">
        <lane id=":A1_51_0" index="0" speed="13.89" length="22.96" shape="296.29,251.59 296.84,252.88 297.85,259.81 296.84,266.74 293.84,273.67"/>
    </edge>
    <edge id=":A1_52" function="internal">
        <lane id=":A1_52_0" index="0" speed="8.80" length="19.01" shape="295.89,250.90 296.63,252.71 296.08,257.54 292.17,260.44 284.91,261.41"/>
    </edge>
    <edge id=":A1_53" function="internal">
        <lane id=":A1_53_0" index="0" speed="3.65" length="3.23" shape="293.75,247.39 293.26,248.13 292.36,248.19 291.07,247.55"/>
    </edge>
    <edge id=":A1_28" function="internal">
        <lane id=":A1_28_0" index="0" speed="5.67" length="9.24" shape="284.91,255.01 287.67,254.64 289.15,253.54 289.36,251.71 288.30,249.15"/>
    </edge>
    <edge id=":A1_29" function="internal">
        <lane id=":A1_29_0" index="0" speed="12.70" length="22.40" shape="284.91,255.01 290.69,254.34 295.69,252.34 299.92,249.01 303.39,244.35"/>
    </edge>
    <edge id=":A1_30" function="internal">
        <lane id=":A1_30_0" index="0" speed="13.89" length="30.17" shape="284.91,255.01 315.09,255.01"/>
        <lane id=":A1_30_1" index="1" speed="13.89" length="30.17" shape="284.91,258.21 315.09,258.21"/>
    </edge>
    <edge id=":A1_32" function="internal">
        <lane id=":A1_32_0" index="0" speed="13.89" length="6.15" shape="284.91,258.21 291.03,258.92"/>
    </edge>
    <edge id=":A1_33" function="internal">
        <lane id=":A1_33_0" index="0" speed="8.80" length="5.36" shape="284.91,258.21 290.23,258.92"/>
    </edge>
    <edge id=":A1_34" function="internal">
        <lane id=":A1_34_0" index="0" speed="3.65" length="1.44" shape="284.91,258.21 286.11,259.01"/>
    </edge>
    <edge id=":A1_54" function="internal">
        <lane id=":A1_54_0" index="0" speed="13.89" length="22.96" shape="291.03,258.92 292.42,259.08 298.92,261.68 304.43,266.01 308.93,272.07"/>
    </edge>
    <edge id=":A1_55" function="internal">
        <lane id=":A1_55_0" index="0" speed="8.80" length="19.01" shape="290.23,258.92 292.17,259.18 296.08,262.08 296.63,266.91 293.84,273.67"/>
    </edge>
    <edge id=":A1_56" function="internal">
        <lane id=":A1_56_0" index="0" speed="3.65" length="3.23" shape="286.11,259.01 286.51,259.81 286.11,260.61 284.91,261.41"/>
    </edge>
    <edge id=":A1_35" function="internal">
        <lane id=":A1_35_0" index="0" speed="5.67" length="9.24" shape="288.30,270.47 289.36,267.91 289.15,266.08 287.67,264.98 284.91,264.61"/>
    </edge>
    <edge id=":A1_36" function="internal">
        <lane id=":A1_36_0" index="0" speed="12.70" length="22.40" shape="288.30,270.47 290.61,265.14 291.38,259.81 290.61,254.48 288.30,249.15"/>
    </edge>
    <edge id=":A1_37" function="internal">
        <lane id=":A1_37_0" index="0" speed="13.89" length="30.17" shape="288.30,270.47 303.39,244.35"/>
        <lane id=":A1_37_1" index="1" speed="13.89" length="30.17" shape="291.07,272.07 306.16,245.95"/>
    </edge>
    <edge id=":A1_39" function="internal">
        <lane id=":A1_39_0" index="0" speed="13.89" length="6.15" shape="291.07,272.07 294.74,267.13"/>
    </edge>
    <edge id=":A1_40" function="internal">
        <lane id=":A1_40_0" index="0" speed="8.81" length="5.36" shape="291.07,272.07 294.34,267.83"/>
    </edge>
    <edge id=":A1_41" function="internal">
        <lane id=":A1_41_0" index="0" speed="3.65" length="1.44" shape="291.07,272.07 292.36,271.43"/>
    </edge>
    <edge id=":A1_57" function="internal">
        <lane id=":A1_57_0" index="0" speed="13.89" length="22.96" shape="294.74,267.13 295.57,266.01 301.08,261.68 307.58,259.08 315.09,258.21"/>
    </edge>
    <edge id=":A1_58" function="internal">
        <lane id=":A1_58_0" index="0" speed="8.81" length="19.01" shape="294.34,267.83 295.54,266.28 300.00,264.34 304.46,266.28 308.93,272.07"/>
    </edge>
    <edge id=":A1_59" function="internal">
        <lane id=":A1_59_0" index="0" speed="3.65" length="3.23" shape="292.36,271.43 293.26,271.49 293.75,272.23 293.84,273.67"/>
    </edge>
    <edge id=":B1_0" function="internal">
        <lane id=":B1_0_0" index="0" speed="10.76" length="15.91" shape="407.69,264.61 405.16,265.28 402.46,267.28 399.62,270.61 396.61,275.27"/>
    </edge>
    <edge id=":B1_1" function="internal">
        <lane id=":B1_1_0" index="0" speed="13.89" length="22.78" shape="407.69,264.61 384.91,264.61"/>
        <lane id=":B1_1_1" index="1" speed="13.89" length="22.78" shape="407.69,261.41 384.91,261.41"/>
    </edge>
    <edge id=":B1_3" function="internal">
        <lane id=":B1_3_0" index="0" speed="12.74" length="3.61" shape="407.69,261.41 404.16,260.69"/>
    </edge>
    <edge id=":B1_4" function="internal">
        <lane id=":B1_4_0" index="0" speed="3.65" length="1.44" shape="407.69,261.41 406.49,260.61"/>
    </edge>
    <edge id=":B1_20" function="internal">
        <lane id=":B1_20_0" index="0" speed="12.74" length="18.95" shape="404.16,260.69 403.42,260.54 399.23,257.94 395.11,253.61 391.07,247.55"/>
    </edge>
    <edge id=":B1_21" function="internal">
        <lane id=":B1_21_0" index="0" speed="3.65" length="3.23" shape="406.49,260.61 406.09,259.81 406.49,259.01 407.69,258.21"/>
    </edge>
    <edge id=":B1_5" function="internal">
        <lane id=":B1_5_0" index="0" speed="10.76" length="15.91" shape="396.61,244.35 399.62,249.01 402.46,252.34 405.16,254.34 407.69,255.01"/>
    </edge>
    <edge id=":B1_6" function="internal">
        <lane id=":B1_6_0" index="0" speed="13.89" length="32.48" shape="396.61,244.35 399.96,252.08 401.08,259.81 399.96,267.54 396.61,275.27"/>
        <lane id=":B1_6_1" index="1" speed="13.89" length="29.12" shape="393.84,245.95 396.84,252.88 397.85,259.81 396.84,266.74 393.84,273.67"/>
    </edge>
    <edge id=":B1_8" function="internal">
        <lane id=":B1_8_0" index="0" speed="8.80" length="8.98" shape="393.84,245.95 396.63,252.71 396.44,254.37"/>
    </edge>
    <edge id=":B1_9" function="internal">
        <lane id=":B1_9_0" index="0" speed="3.65" length="1.44" shape="393.84,245.95 393.75,247.39"/>
    </edge>
    <edge id=":B1_22" function="internal">
        <lane id=":B1_22_0" index="0" speed="8.80" length="15.38" shape="396.44,254.37 396.08,257.54 392.17,260.44 384.91,261.41"/>
    </edge>
    <edge id=":B1_23" function="internal">
        <lane id=":B1_23_0" index="0" speed="3.65" length="3.23" shape="393.75,247.39 393.26,248.13 392.36,248.19 391.07,247.55"/>
    </edge>
    <edge id=":B1_10" function="internal">
        <lane id=":B1_10_0" index="0" speed="5.67" length="9.24" shape="384.91,255.01 387.67,254.64 389.15,253.54 389.36,251.71 388.30,249.15"/>
    </edge>
    <edge id=":B1_11" function="internal">
        <lane id=":B1_11_0" index="0" speed="13.89" length="22.78" shape="384.91,255.01 407.69,255.01"/>
        <lane id=":B1_11_1" index="1" speed="13.89" length="22.78" shape="384.91,258.21 407.69,258.21"/>
    </edge>
    <edge id=":B1_13" function="internal">
        <lane id=":B1_13_0" index="0" speed="8.80" length="5.36" shape="384.91,258.21 390.23,258.92"/>
    </edge>
    <edge id=":B1_14" function="internal">
        <lane id=":B1_14_0" index="0" speed="3.65" length="1.44" shape="384.91,258.21 386.11,259.01"/>
    </edge>
    <edge id=":B1_24" function="internal">
        <lane id=":B1_24_0" index="0" speed="8.80" length="19.01" shape="390.23,258.92 392.17,259.18 396.08,262.08 396.63,266.91 393.84,273.67"/>
    </edge>
    <edge id=":B1_25" function="internal">
        <lane id=":B1_25_0" index="0" speed="3.65" length="3.23" shape="386.11,259.01 386.51,259.81 386.11,260.61 384.91,261.41"/>
    </edge>
    <edge id=":B1_15" function="internal">
        <lane id=":B1_15_0" index="0" speed="5.67" length="9.24" shape="388.30,270.47 389.36,267.91 389.15,266.08 387.67,264.98 384.91,264.61"/>
    </edge>
    <edge id=":B1_16" function="internal">
        <lane id=":B1_16_0" index="0" speed="12.70" length="22.40" shape="388.30,270.47 390.61,265.14 391.38,259.81 390.61,254.48 388.30,249.15"/>
        <lane id=":B1_16_1" index="1" speed="13.59" length="25.76" shape="391.07,272.07 393.73,265.94 394.61,259.81 393.73,253.68 391.07,247.55"/>
    </edge>
    <edge id=":B1_18" function="internal">
        <lane id=":B1_18_0" index="0" speed="12.74" length="3.89" shape="391.07,272.07 393.23,268.83"/>
    </edge>
    <edge id=":B1_19" function="internal">
        <lane id=":B1_19_0" index="0" speed="3.65" length="1.32" shape="391.07,272.07 392.26,271.49"/>
    </edge>
    <edge id=":B1_26" function="internal">
        <lane id=":B1_26_0" index="0" speed="12.74" length="18.66" shape="393.23,268.83 395.11,266.01 399.23,261.68 403.42,259.08 407.69,258.21"/>
    </edge>
    <edge id=":B1_27" function="internal">
        <lane id=":B1_27_0" index="0" speed="3.65" length="3.35" shape="392.26,271.49 392.36,271.43 393.26,271.49 393.75,272.23 393.84,273.67"/>
    </edge>
    <edge id=":B2_0" function="internal">
        <lane id=":B2_0_0" index="0" speed="10.76" length="15.91" shape="349.69,355.47 347.84,353.61 344.77,352.28 340.46,351.48 334.91,351.21"/>
    </edge>
    <edge id=":B2_1" function="internal">
        <lane id=":B2_1_0" index="0" speed="13.89" length="22.78" shape="349.69,355.47 338.30,335.75"/>
        <lane id=":B2_1_1" index="1" speed="13.89" length="22.78" shape="352.46,353.87 341.07,334.15"/>
    </edge>
    <edge id=":B2_3" function="internal">
        <lane id=":B2_3_0" index="0" speed="12.74" length="3.61" shape="352.46,353.87 351.31,350.45"/>
    </edge>
    <edge id=":B2_4" function="internal">
        <lane id=":B2_4_0" index="0" speed="3.65" length="1.44" shape="352.46,353.87 352.55,352.43"/>
    </edge>
    <edge id=":B2_20" function="internal">
        <lane id=":B2_20_0" index="0" speed="12.74" length="18.95" shape="351.31,350.45 351.08,349.74 351.23,344.81 352.92,339.08 356.16,332.55"/>
    </edge>
    <edge id=":B2_21" function="internal">
        <lane id=":B2_21_0" index="0" speed="3.65" length="3.23" shape="352.55,352.43 353.05,351.69 353.94,351.63 355.23,352.27"/>
    </edge>
    <edge id=":B2_5" function="internal">
        <lane id=":B2_5_0" index="0" speed="10.76" length="15.91" shape="361.70,335.75 359.16,340.68 357.70,344.81 357.31,348.14 358.00,350.67"/>
    </edge>
    <edge id=":B2_6" function="internal">
        <lane id=":B2_6_0" index="0" speed="13.89" length="32.48" shape="361.70,335.75 356.68,342.51 350.54,347.34 343.28,350.24 334.91,351.21"/>
        <lane id=":B2_6_1" index="1" speed="13.89" length="29.12" shape="358.93,334.15 354.43,340.21 348.92,344.54 342.42,347.14 334.91,348.01"/>
    </edge>
    <edge id=":B2_8" function="internal">
        <lane id=":B2_8_0" index="0" speed="8.80" length="8.98" shape="358.93,334.15 354.46,339.95 352.94,340.61"/>
    </edge>
    <edge id=":B2_9" function="internal">
        <lane id=":B2_9_0" index="0" speed="3.65" length="1.44" shape="358.93,334.15 357.64,334.79"/>
    </edge>
    <edge id=":B2_22" function="internal">
        <lane id=":B2_22_0" index="0" speed="8.80" length="15.38" shape="352.94,340.61 350.00,341.88 345.54,339.94 341.07,334.15"/>
    </edge>
    <edge id=":B2_23" function="internal">
        <lane id=":B2_23_0" index="0" speed="3.65" length="3.23" shape="357.64,334.79 356.74,334.73 356.25,333.99 356.16,332.55"/>
    </edge>
    <edge id=":B2_10" function="internal">
        <lane id=":B2_10_0" index="0" speed="5.67" length="9.24" shape="346.61,330.95 348.31,333.14 350.00,333.88 351.69,333.15 353.39,330.95"/>
    </edge>
    <edge id=":B2_11" function="internal">
        <lane id=":B2_11_0" index="0" speed="13.89" length="22.78" shape="346.61,330.95 358.00,350.67"/>
        <lane id=":B2_11_1" index="1" speed="13.89" length="22.78" shape="343.84,332.55 355.23,352.27"/>
    </edge>
    <edge id=":B2_13" function="internal">
        <lane id=":B2_13_0" index="0" speed="8.80" length="5.36" shape="343.84,332.55 345.89,337.50"/>
    </edge>
    <edge id=":B2_14" function="internal">
        <lane id=":B2_14_0" index="0" speed="3.65" length="1.44" shape="343.84,332.55 343.75,333.99"/>
    </edge>
    <edge id=":B2_24" function="internal">
        <lane id=":B2_24_0" index="0" speed="8.80" length="19.01" shape="345.89,337.50 346.63,339.31 346.08,344.14 342.17,347.04 334.91,348.01"/>
    </edge>
    <edge id=":B2_25" function="internal">
        <lane id=":B2_25_0" index="0" speed="3.65" length="3.23" shape="343.75,333.99 343.26,334.73 342.36,334.79 341.07,334.15"/>
    </edge>
    <edge id=":B2_15" function="internal">
        <lane id=":B2_15_0" index="0" speed="5.67" length="9.24" shape="334.91,341.61 337.67,341.24 339.15,340.14 339.36,338.31 338.30,335.75"/>
    </edge>
    <edge id=":B2_16" function="internal">
        <lane id=":B2_16_0" index="0" speed="12.70" length="22.40" shape="334.91,341.61 340.69,340.94 345.69,338.94 349.92,335.61 353.39,330.95"/>
        <lane id=":B2_16_1" index="1" speed="13.59" length="25.76" shape="334.91,344.81 341.55,344.04 347.31,341.74 352.17,337.91 356.16,332.55"/>
    </edge>
    <edge id=":B2_18" function="internal">
        <lane id=":B2_18_0" index="0" speed="12.74" length="3.89" shape="334.91,344.81 338.80,345.06"/>
    </edge>
    <edge id=":B2_19" function="internal">
        <lane id=":B2_19_0" index="0" speed="3.65" length="1.32" shape="334.91,344.81 336.02,345.54"/>
    </edge>
    <edge id=":B2_26" function="internal">
        <lane id=":B2_26_0" index="0" speed="12.74" length="18.66" shape="338.80,345.06 342.19,345.28 348.00,346.68 352.35,349.01 355.23,352.27"/>
    </edge>
    <edge id=":B2_27" function="internal">
        <lane id=":B2_27_0" index="0" speed="3.65" length="3.35" shape="336.02,345.54 336.11,345.61 336.51,346.41 336.11,347.21 334.91,348.01"/>
    </edge>
    <edge id=":B3_0" function="internal">
        <lane id=":B3_0_0" index="0" speed="10.76" length="15.91" shape="265.09,351.21 259.54,351.48 255.23,352.28 252.16,353.61 250.31,355.47"/>
    </edge>
    <edge id=":B3_1" function="internal">
        <lane id=":B3_1_0" index="0" speed="13.89" length="32.48" shape="265.09,351.21 256.72,350.24 249.46,347.34 243.32,342.51 238.30,335.75"/>
        <lane id=":B3_1_1" index="1" speed="13.89" length="29.12" shape="265.09,348.01 257.58,347.14 251.08,344.54 245.57,340.21 241.07,334.15"/>
    </edge>
    <edge id=":B3_3" function="internal">
        <lane id=":B3_3_0" index="0" speed="8.80" length="8.98" shape="265.09,348.01 257.83,347.04 256.49,346.05"/>
    </edge>
    <edge id=":B3_4" function="internal">
        <lane id=":B3_4_0" index="0" speed="3.65" length="1.44" shape="265.09,348.01 263.89,347.21"/>
    </edge>
    <edge id=":B3_20" function="internal">
        <lane id=":B3_20_0" index="0" speed="8.80" length="15.38" shape="256.49,346.05 253.92,344.14 253.37,339.31 256.16,332.55"/>
    </edge>
    <edge id=":B3_21" function="internal">
        <lane id=":B3_21_0" index="0" speed="3.65" length="3.23" shape="263.89,347.21 263.49,346.41 263.89,345.61 265.09,344.81"/>
    </edge>
    <edge id=":B3_5" function="internal">
        <lane id=":B3_5_0" index="0" speed="5.67" length="9.24" shape="261.70,335.75 260.64,338.31 260.85,340.14 262.33,341.24 265.09,341.61"/>
    </edge>
    <edge id=":B3_6" function="internal">
        <lane id=":B3_6_0" index="0" speed="13.89" length="22.78" shape="261.70,335.75 250.31,355.47"/>
        <lane id=":B3_6_1" index="1" speed="13.89" length="22.78" shape="258.93,334.15 247.54,353.87"/>
    </edge>
    <edge id=":B3_8" function="internal">
        <lane id=":B3_8_0" index="0" speed="8.80" length="5.36" shape="258.93,334.15 255.66,338.39"/>
    </edge>
    <edge id=":B3_9" function="internal">
        <lane id=":B3_9_0" index="0" speed="3.65" length="1.44" shape="258.93,334.15 257.64,334.79"/>
    </edge>
    <edge id=":B3_22" function="internal">
        <lane id=":B3_22_0" index="0" speed="8.80" length="19.01" shape="255.66,338.39 254.46,339.94 250.00,341.88 245.54,339.95 241.07,334.15"/>
    </edge>
    <edge id=":B3_23" function="internal">
        <lane id=":B3_23_0" index="0" speed="3.65" length="3.23" shape="257.64,334.79 256.74,334.73 256.25,333.99 256.16,332.55"/>
    </edge>
    <edge id=":B3_10" function="internal">
        <lane id=":B3_10_0" index="0" speed="5.67" length="9.24" shape="246.61,330.95 248.31,333.15 250.00,333.88 251.69,333.14 253.39,330.95"/>
    </edge>
    <edge id=":B3_11" function="internal">
        <lane id=":B3_11_0" index="0" speed="12.70" length="22.40" shape="246.61,330.95 250.08,335.61 254.31,338.94 259.31,340.94 265.09,341.61"/>
        <lane id=":B3_11_1" index="1" speed="13.59" length="25.76" shape="243.84,332.55 247.83,337.91 252.69,341.74 258.45,344.04 265.09,344.81"/>
    </edge>
    <edge id=":B3_13" function="internal">
        <lane id=":B3_13_0" index="0" speed="12.74" length="3.89" shape="243.84,332.55 245.57,336.04"/>
    </edge>
    <edge id=":B3_14" function="internal">
        <lane id=":B3_14_0" index="0" speed="3.65" length="1.32" shape="243.84,332.55 243.76,333.87"/>
    </edge>
    <edge id=":B3_24" function="internal">
        <lane id=":B3_24_0" index="0" speed="12.74" length="18.66" shape="245.57,336.04 247.08,339.08 248.77,344.81 248.92,349.74 247.54,353.87"/>
    </edge>
    <edge id=":B3_25" function="internal">
        <lane id=":B3_25_0" index="0" speed="3.65" length="3.35" shape="243.76,333.87 243.75,333.99 243.26,334.73 242.36,334.79 241.07,334.15"/>
    </edge>
    <edge id=":B3_15" function="internal">
        <lane id=":B3_15_0" index="0" speed="10.76" length="15.91" shape="242.00,350.67 242.69,348.14 242.30,344.81 240.84,340.68 238.30,335.75"/>
    </edge>
    <edge id=":B3_16" function="internal">
        <lane id=":B3_16_0" index="0" speed="13.89" length="22.78" shape="242.00,350.67 253.39,330.95"/>
        <lane id=":B3_16_1" index="1" speed="13.89" length="22.78" shape="244.77,352.27 256.16,332.55"/>
    </edge>
    <edge id=":B3_18" function="internal">
        <lane id=":B3_18_0" index="0" speed="12.74" length="3.61" shape="244.77,352.27 247.16,349.57"/>
    </edge>
    <edge id=":B3_19" function="internal">
        <lane id=":B3_19_0" index="0" speed="3.65" length="1.44" shape="244.77,352.27 246.06,351.63"/>
    </edge>
    <edge id=":B3_26" function="internal">
        <lane id=":B3_26_0" index="0" speed="12.74" length="18.95" shape="247.16,349.57 247.65,349.01 252.00,346.68 257.81,345.28 265.09,344.81"/>
    </edge>
    <edge id=":B3_27" function="internal">
        <lane id=":B3_27_0" index="0" speed="3.65" length="3.23" shape="246.06,351.63 246.95,351.69 247.45,352.43 247.54,353.87"/>
    </edge>
    <edge id=":B4_0" function="internal">
        <lane id=":B4_0_0" index="0" speed="10.76" length="15.91" shape="203.39,275.27 200.38,270.61 197.54,267.28 194.84,265.28 192.31,264.61"/>
    </edge>
    <edge id=":B4_1" function="internal">
        <lane id=":B4_1_0" index="0" speed="13.89" length="32.48" shape="203.39,275.27 200.04,267.54 198.92,259.81 200.04,252.08 203.39,244.35"/>
        <lane id=":B4_1_1" index="1" speed="13.89" length="29.12" shape="206.16,273.67 203.16,266.74 202.15,259.81 203.16,252.88 206.16,245.95"/>
    </edge>
    <edge id=":B4_3" function="internal">
        <lane id=":B4_3_0" index="0" speed="8.80" length="8.98" shape="206.16,273.67 203.37,266.91 203.56,265.25"/>
    </edge>
    <edge id=":B4_4" function="internal">
        <lane id=":B4_4_0" index="0" speed="3.65" length="1.44" shape="206.16,273.67 206.25,272.23"/>
    </edge>
    <edge id=":B4_20" function="internal">
        <lane id=":B4_20_0" index="0" speed="8.80" length="15.38" shape="203.56,265.25 203.92,262.08 207.83,259.18 215.09,258.21"/>
    </edge>
    <edge id=":B4_21" function="internal">
        <lane id=":B4_21_0" index="0" speed="3.65" length="3.23" shape="206.25,272.23 206.74,271.49 207.64,271.43 208.93,272.07"/>
    </edge>
    <edge id=":B4_5" function="internal">
        <lane id=":B4_5_0" index="0" speed="5.67" length="9.24" shape="215.09,264.61 212.33,264.98 210.85,266.08 210.64,267.91 211.70,270.47"/>
    </edge>
    <edge id=":B4_6" function="internal">
        <lane id=":B4_6_0" index="0" speed="13.89" length="22.78" shape="215.09,264.61 192.31,264.61"/>
        <lane id=":B4_6_1" index="1" speed="13.89" length="22.78" shape="215.09,261.41 192.31,261.41"/>
    </edge>
    <edge id=":B4_8" function="internal">
        <lane id=":B4_8_0" index="0" speed="8.80" length="5.36" shape="215.09,261.41 209.77,260.70"/>
    </edge>
    <edge id=":B4_9" function="internal">
        <lane id=":B4_9_0" index="0" speed="3.65" length="1.44" shape="215.09,261.41 213.89,260.61"/>
    </edge>
    <edge id=":B4_22" function="internal">
        <lane id=":B4_22_0" index="0" speed="8.80" length="19.01" shape="209.77,260.70 207.83,260.44 203.92,257.54 203.37,252.71 206.16,245.95"/>
    </edge>
    <edge id=":B4_23" function="internal">
        <lane id=":B4_23_0" index="0" speed="3.65" length="3.23" shape="213.89,260.61 213.49,259.81 213.89,259.01 215.09,258.21"/>
    </edge>
    <edge id=":B4_10" function="internal">
        <lane id=":B4_10_0" index="0" speed="5.67" length="9.24" shape="211.70,249.15 210.64,251.71 210.85,253.54 212.33,254.64 215.09,255.01"/>
    </edge>
    <edge id=":B4_11" function="internal">
        <lane id=":B4_11_0" index="0" speed="12.70" length="22.40" shape="211.70,249.15 209.39,254.48 208.62,259.81 209.39,265.14 211.70,270.47"/>
        <lane id=":B4_11_1" index="1" speed="13.59" length="25.76" shape="208.93,247.55 206.27,253.68 205.39,259.81 206.27,265.94 208.93,272.07"/>
    </edge>
    <edge id=":B4_13" function="internal">
        <lane id=":B4_13_0" index="0" speed="12.74" length="3.89" shape="208.93,247.55 206.77,250.79"/>
    </edge>
    <edge id=":B4_14" function="internal">
        <lane id=":B4_14_0" index="0" speed="3.65" length="1.32" shape="208.93,247.55 207.74,248.13"/>
    </edge>
    <edge id=":B4_24" function="internal">
        <lane id=":B4_24_0" index="0" speed="12.74" length="18.66" shape="206.77,250.79 204.89,253.61 200.77,257.94 196.58,260.54 192.31,261.41"/>