<?xml version="1.0" encoding="UTF-8"?>

<!-- generated on 2025-03-10 09:04:19.338334 by randomTrips.py v1_22_0+0002-63e50f52594
<configuration>
    <net-file value="c:\Users\Jun Kit\Desktop\Designing-Intelligent-Agents\src\python\..\network\GeorgeTown.net.xml"/>
    <output-trip-file value="c:\Users\Jun Kit\Desktop\Designing-Intelligent-Agents\src\python\..\routes\GeorgeTown_medium.trips.xml"/>
    <route-file value="c:\Users\Jun Kit\Desktop\Designing-Intelligent-Agents\src\python\..\routes\GeorgeTown_medium.rou.xml"/>
    <fringe-factor value="5"/>
    <validate value="True"/>
    <insertion-rate value="600.0"/>
</configuration>
-->

<routes xmlns:xsi="http://www.w3.org/2001/XMLSchema-instance" xsi:noNamespaceSchemaLocation="http://sumo.dlr.de/xsd/routes_file.xsd">
    <trip id="0" depart="0.00" from="41593066#2" to="-1270323945#0"/>
    <trip id="1" depart="6.00" from="-761361242" to="-758465542#0"/>
    <trip id="2" depart="12.00" from="65692233#3" to="579286169#1"/>
    <trip id="3" depart="18.00" from="760445556#3" to="-168175852#0"/>
    <trip id="4" depart="24.00" from="160439553#1" to="-1309612332#0"/>
    <trip id="5" depart="30.00" from="-750501584#3" to="264409111#4"/>
    <trip id="6" depart="36.00" from="-1270323945#5" to="-750501584#17"/>
    <trip id="7" depart="42.00" from="41593077#0" to="31250741"/>
    <trip id="8" depart="48.00" from="-750501584#9" to="41570143#0"/>
    <trip id="9" depart="54.00" from="749883673#0" to="-1148897218#2"/>
    <trip id="10" depart="60.00" from="749883660" to="641231358#1"/>
    <trip id="11" depart="66.00" from="1199395939#0" to="-578842204#1"/>
    <trip id="12" depart="72.00" from="836888229#0" to="1278084654"/>
    <trip id="13" depart="78.00" from="-23128864#5" to="-182488021"/>
    <trip id="14" depart="84.00" from="758391348" to="41593068#3"/>
    <trip id="15" depart="90.00" from="749883667#0" to="698179755"/>
    <trip id="16" depart="96.00" from="263737498#0" to="979454442#3"/>
    <trip id="17" depart="102.00" from="1356543509#0" to="31283701#4"/>
    <trip id="18" depart="108.00" from="756622100#2" to="41657433#2"/>
    <trip id="19" depart="114.00" from="758465583" to="41570122#11"/>
    <trip id="20" depart="120.00" from="579074809" to="-156570278#6"/>
    <trip id="21" depart="126.00" from="-757037245#0" to="1148899870#2"/>
    <trip id="22" depart="132.00" from="-162392786#3" to="-758466064#9"/>
    <trip id="23" depart="138.00" from="-252235823#8" to="1018158043#0"/>
    <trip id="24" depart="144.00" from="41590605#16" to="156570278#1"/>
    <trip id="25" depart="150.00" from="1309612330#0" to="-757037241#1"/>
    <trip id="26" depart="156.00" from="-758479409#1" to="784800203"/>
    <trip id="27" depart="162.00" from="41593073#9" to="41593073#1"/>
    <trip id="28" depart="168.00" from="-642158453" to="688199320#9"/>
    <trip id="29" depart="174.00" from="-641205823#1" to="160234781#0"/>
    <trip id="30" depart="180.00" from="993213469" to="49001555"/>
    <trip id="31" depart="186.00" from="290825445#2" to="607843788#0"/>
    <trip id="32" depart="192.00" from="757095610#0" to="747351289#1"/>
    <trip id="33" depart="198.00" from="-757037251#1" to="-1356543509#0"/>
    <trip id="34" depart="204.00" from="1096717068" to="-979454447#0"/>
    <trip id="35" depart="210.00" from="-749883648#4" to="784925582"/>
    <trip id="36" depart="216.00" from="758999795#1" to="122494737#1"/>
    <trip id="37" depart="222.00" from="41657435" to="160440793#2"/>
    <trip id="38" depart="228.00" from="762328087#1" to="23136413#0"/>
    <trip id="39" depart="234.00" from="-758479406#2" to="-761463321#2"/>
    <trip id="40" depart="240.00" from="29493816#1" to="-836714542#0"/>
    <trip id="41" depart="246.00" from="31250742#1" to="760556928#0"/>
    <trip id="42" depart="252.00" from="156570525#1" to="-757095593#1"/>
    <trip id="43" depart="258.00" from="993415065#6" to="270282937"/>
    <trip id="44" depart="264.00" from="-184397866#1" to="-156570532#1"/>
    <trip id="45" depart="270.00" from="-285692163#2" to="47657360#2"/>
    <trip id="46" depart="276.00" from="747362362#1" to="169543292#4"/>
    <trip id="47" depart="282.00" from="-160440782#3" to="160234784#1"/>
    <trip id="48" depart="288.00" from="993415065#0" to="31249839#1"/>
    <trip id="49" depart="294.00" from="979454435#1" to="758465568"/>
    <trip id="50" depart="300.00" from="-1173353136" to="66056507#1"/>
    <trip id="51" depart="306.00" from="573603757" to="31249852#0"/>
    <trip id="52" depart="312.00" from="-758479409#0" to="49324446#1"/>
    <trip id="53" depart="318.00" from="-29493812#1" to="180391242"/>
    <trip id="54" depart="324.00" from="168175852#0" to="819375167#1"/>
    <trip id="55" depart="330.00" from="758999795#0" to="-836714542#0"/>
    <trip id="56" depart="336.00" from="23159641" to="-706923916#1"/>
    <trip id="57" depart="342.00" from="762328080#2" to="758466064#7"/>
    <trip id="58" depart="348.00" from="-981478324#0" to="48902392#3"/>
    <trip id="59" depart="354.00" from="32077649#1" to="-572827189"/>
    <trip id="60" depart="360.00" from="714362126#1" to="31249858#2"/>
    <trip id="61" depart="366.00" from="742653798#4" to="31249841#2"/>
    <trip id="62" depart="372.00" from="-1017533393#1" to="1240335688#2"/>
    <trip id="63" depart="378.00" from="-122494736" to="781928193"/>
    <trip id="64" depart="384.00" from="759005730#0" to="757094102#0"/>
    <trip id="65" depart="390.00" from="1018158035" to="-160234792"/>
    <trip id="66" depart="396.00" from="759005726#0" to="786282143#0"/>
    <trip id="67" depart="402.00" from="-179564507#0" to="23370339#5"/>
    <trip id="68" depart="408.00" from="-162381543" to="742645993"/>
    <trip id="69" depart="414.00" from="714370112" to="-363832561#1"/>
    <trip id="70" depart="420.00" from="183547134" to="31283697#2"/>
    <trip id="71" depart="426.00" from="-758479406#2" to="758479406#4"/>
    <trip id="72" depart="432.00" from="160439701#0" to="-757074967#1"/>
    <trip id="73" depart="438.00" from="264409109#0" to="698179757"/>
    <trip id="74" depart="444.00" from="-747351262#0" to="1215226726#1"/>
    <trip id="75" depart="450.00" from="993415057" to="573603768#1"/>
    <trip id="76" depart="456.00" from="162381544#0" to="290825445#1"/>
    <trip id="77" depart="462.00" from="-41570142#2" to="-758465543#0"/>
    <trip id="78" depart="468.00" from="1173353148" to="41570142#0"/>
    <trip id="79" depart="474.00" from="-757040104#1" to="-757095608#1"/>
    <trip id="80" depart="480.00" from="-162384997#4" to="47811221#1"/>
    <trip id="81" depart="486.00" from="-757037251#1" to="761361247"/>
    <trip id="82" depart="492.00" from="758465543#6" to="-162368304#0"/>
    <trip id="83" depart="498.00" from="-757094099" to="578868863#1"/>
    <trip id="84" depart="504.00" from="-750501584#13" to="-41570143#4"/>
    <trip id="85" depart="510.00" from="784811174" to="32077649#1"/>
    <trip id="86" depart="516.00" from="182040210#3" to="749883640#1"/>
    <trip id="87" depart="522.00" from="749883667#1" to="-747362364#1"/>
    <trip id="88" depart="528.00" from="-232874896" to="179745731"/>
    <trip id="89" depart="534.00" from="160439703#0" to="232871336#2"/>
    <trip id="90" depart="540.00" from="641589077#0" to="579261136#1"/>
    <trip id="91" depart="546.00" from="990219990#3" to="-23128864#3"/>
    <trip id="92" depart="552.00" from="156570576#2" to="1309612329#0"/>
    <trip id="93" depart="558.00" from="758465583" to="-762177035#2"/>
    <trip id="94" depart="564.00" from="-688199320#4" to="23052638#11"/>
    <trip id="95" depart="570.00" from="160439553#1" to="1018173700#0"/>
    <trip id="96" depart="576.00" from="-758465522#0" to="773165180#9"/>
    <trip id="97" depart="582.00" from="162385003#0" to="758465578"/>
    <trip id="98" depart="588.00" from="285692163#1" to="-158997415#5"/>
    <trip id="99" depart="594.00" from="993537260#1" to="757095595"/>
    <trip id="100" depart="600.00" from="979454433" to="780546368"/>
    <trip id="101" depart="606.00" from="758391360#0" to="-641589072#0"/>
    <trip id="102" depart="612.00" from="23052638#7" to="-757094056#0"/>
    <trip id="103" depart="618.00" from="156570531#0" to="-160234799"/>
    <trip id="104" depart="624.00" from="1356543509#1" to="992998728"/>
    <trip id="105" depart="630.00" from="-758479406#3" to="749883638"/>
    <trip id="106" depart="636.00" from="168175855#1" to="174042705#0"/>
    <trip id="107" depart="642.00" from="836888229#0" to="993415058"/>
    <trip id="108" depart="648.00" from="290825442#1" to="65684838"/>
    <trip id="109" depart="654.00" from="-595827369" to="1173353125#2"/>
    <trip id="110" depart="660.00" from="979454432#1" to="41570122#6"/>
    <trip id="111" depart="666.00" from="264409111#4" to="714370089"/>
    <trip id="112" depart="672.00" from="-160234784#1" to="41570128#3"/>
    <trip id="113" depart="678.00" from="23159712#3" to="758465521#3"/>
    <trip id="114" depart="684.00" from="-639991284" to="858724804#1"/>
    <trip id="115" depart="690.00" from="-162392786#4" to="-747351275#2"/>
    <trip id="116" depart="696.00" from="31285085#4" to="579261137#4"/>
    <trip id="117" depart="702.00" from="-757094056#1" to="-29493812#0"/>
    <trip id="118" depart="708.00" from="760111261" to="-761463321#1"/>
    <trip id="119" depart="714.00" from="31285085#2" to="41657433#6"/>
    <trip id="120" depart="720.00" from="160236061#0" to="41570128#1"/>
    <trip id="121" depart="726.00" from="23370339#6" to="784292856"/>
    <trip id="122" depart="732.00" from="-747351289#1" to="642581140"/>
    <trip id="123" depart="738.00" from="-757094099" to="160440793#2"/>
    <trip id="124" depart="744.00" from="48737676#6" to="1173353137"/>
    <trip id="125" depart="750.00" from="1118021472#0" to="714372712"/>
    <trip id="126" depart="756.00" from="-162385000#1" to="23134593"/>
    <trip id="127" depart="762.00" from="993415066#2" to="993415065#0"/>
    <trip id="128" depart="768.00" from="-162385001#0" to="-757090905#1"/>
    <trip id="129" depart="774.00" from="-758479406#3" to="783956183"/>
    <trip id="130" depart="780.00" from="759005736#14" to="759005726#0"/>
    <trip id="131" depart="786.00" from="1309612329#0" to="-579261136#0"/>
    <trip id="132" depart="792.00" from="757074968" to="641589077#1"/>
    <trip id="133" depart="798.00" from="32189366#1" to="993213438#1"/>
    <trip id="134" depart="804.00" from="41657433#2" to="-1148899870#2"/>
    <trip id="135" depart="810.00" from="750501584#23" to="1173353135"/>
    <trip id="136" depart="816.00" from="46906456#4" to="784834190"/>
    <trip id="137" depart="822.00" from="-47657360#2" to="-270282937"/>
    <trip id="138" depart="828.00" from="-270282933#1" to="31283701#9"/>
    <trip id="139" depart="834.00" from="-759005730#1" to="41593069#3"/>
    <trip id="140" depart="840.00" from="587789127#3" to="-750501584#7"/>
    <trip id="141" depart="846.00" from="41590605#10" to="-836714542#2"/>
    <trip id="142" depart="852.00" from="23109528#10" to="761361247"/>
    <trip id="143" depart="858.00" from="758391343" to="-180390681#1"/>
    <trip id="144" depart="864.00" from="160439703#0" to="1017533393#1"/>
    <trip id="145" depart="870.00" from="-1079925970#1" to="747351269"/>
    <trip id="146" depart="876.00" from="41590605#6" to="-819375167#0"/>
    <trip id="147" depart="882.00" from="67151515#1" to="31283701#2"/>
    <trip id="148" depart="888.00" from="160440789#2" to="-1173353116"/>
    <trip id="149" depart="894.00" from="-162385003#2" to="759005736#2"/>
    <trip id="150" depart="900.00" from="761361247" to="31250742#2"/>
    <trip id="151" depart="906.00" from="757090904" to="41570126#1"/>
    <trip id="152" depart="912.00" from="-578842204#0" to="-312871737#3"/>
    <trip id="153" depart="918.00" from="1018158043#0" to="761361232#1"/>
    <trip id="154" depart="924.00" from="749883630" to="758465559"/>
    <trip id="155" depart="930.00" from="761361232#14" to="-757037244#1"/>
    <trip id="156" depart="936.00" from="-758391348" to="-232874892#6"/>
    <trip id="157" depart="942.00" from="742653799#0" to="759005736#6"/>
    <trip id="158" depart="948.00" from="158997415#5" to="41657437#1"/>
    <trip id="159" depart="954.00" from="-595827369" to="781928198"/>
    <trip id="160" depart="960.00" from="758465892#3" to="979454515#1"/>
    <trip id="161" depart="966.00" from="749883678" to="759005736#11"/>
    <trip id="162" depart="972.00" from="-1263610365#1" to="706924494#1"/>
    <trip id="163" depart="978.00" from="1173353138#15" to="783915110#1"/>
    <trip id="164" depart="984.00" from="749883648#3" to="758465595"/>
    <trip id="165" depart="990.00" from="749883678" to="-979454443#0"/>
    <trip id="166" depart="996.00" from="747351275#7" to="-25797904#1"/>
    <trip id="167" depart="1002.00" from="758479409#0" to="758465543#6"/>
    <trip id="168" depart="1008.00" from="-750501602#10" to="757037230"/>
    <trip id="169" depart="1014.00" from="179564507#0" to="1173353140"/>
    <trip id="170" depart="1020.00" from="749883624#0" to="-758465892#2"/>
    <trip id="171" depart="1026.00" from="-1263610363#3" to="-749883640#4"/>
    <trip id="172" depart="1032.00" from="1173353128" to="758465608"/>
    <trip id="173" depart="1038.00" from="978296550#3" to="1018173701"/>
    <trip id="174" depart="1044.00" from="41593069#2" to="162360688#2"/>
    <trip id="175" depart="1050.00" from="985069016#1" to="31249850#0"/>
    <trip id="176" depart="1056.00" from="784896632#0" to="-270282933#0"/>
    <trip id="177" depart="1062.00" from="979454434#5" to="-706923916#1"/>
    <trip id="178" depart="1068.00" from="858726279#1" to="-975342603"/>
    <trip id="179" depart="1074.00" from="-275395206" to="180390898#1"/>
    <trip id="180" depart="1080.00" from="641589072#1" to="1220172096#0"/>
    <trip id="181" depart="1086.00" from="32062891#0" to="285692163#2"/>
    <trip id="182" depart="1092.00" from="137903968#3" to="41570122#0"/>
    <trip id="183" depart="1098.00" from="-758465543#5" to="642204497#1"/>
    <trip id="184" depart="1104.00" from="-1044686845#0" to="776901333#7"/>
    <trip id="185" depart="1110.00" from="264409108#2" to="65692233#3"/>
    <trip id="186" depart="1116.00" from="688080681#0" to="579074811"/>
    <trip id="187" depart="1122.00" from="1270323945#2" to="-162368304#0"/>
    <trip id="188" depart="1128.00" from="47657360#2" to="1263610363#0"/>
    <trip id="189" depart="1134.00" from="1086378765" to="758391360#1"/>
    <trip id="190" depart="1140.00" from="616330694#0" to="1173353138#0"/>
    <trip id="191" depart="1146.00" from="1018173701" to="162385002#0"/>
    <trip id="192" depart="1152.00" from="156570576#1" to="1173353125#0"/>
    <trip id="193" depart="1158.00" from="-41593072#8" to="168175856#0"/>
    <trip id="194" depart="1164.00" from="784906016" to="579286169#4"/>
    <trip id="195" depart="1170.00" from="761361241#1" to="41593078#0"/>
    <trip id="196" depart="1176.00" from="-984178457#2" to="31254283#2"/>
    <trip id="197" depart="1182.00" from="-1017533393#0" to="1137561933#1"/>
    <trip id="198" depart="1188.00" from="160440793#2" to="41570122#9"/>
    <trip id="199" depart="1194.00" from="41657433#4" to="23159706#1"/>
    <trip id="200" depart="1200.00" from="162385001#2" to="-757094056#0"/>
    <trip id="201" depart="1206.00" from="182488021" to="761361232#3"/>
    <trip id="202" depart="1212.00" from="749883629" to="-642572744#1"/>
    <trip id="203" depart="1218.00" from="-179564500#4" to="290825442#2"/>
    <trip id="204" depart="1224.00" from="41570153#3" to="1278084652#1"/>
    <trip id="205" depart="1230.00" from="750501584#28" to="714372712"/>
    <trip id="206" depart="1236.00" from="48737681" to="-758465543#0"/>
    <trip id="207" depart="1242.00" from="-714372713#2" to="-1263610365#0"/>
    <trip id="208" depart="1248.00" from="-757095602" to="232874888#4"/>
    <trip id="209" depart="1254.00" from="758391368#1" to="-162384997#1"/>
    <trip id="210" depart="1260.00" from="160234799" to="47657367#4"/>
    <trip id="211" depart="1266.00" from="-714361124#1" to="641205802"/>
    <trip id="212" depart="1272.00" from="23136376#0" to="-761361244"/>
    <trip id="213" depart="1278.00" from="41657437#0" to="-1137561933#1"/>
    <trip id="214" depart="1284.00" from="706923921#2" to="747351267#5"/>
    <trip id="215" depart="1290.00" from="-270282932" to="179564500#4"/>
    <trip id="216" depart="1296.00" from="-642572743#1" to="842950894#1"/>
    <trip id="217" depart="1302.00" from="232874895#0" to="-158997415#3"/>
    <trip id="218" depart="1308.00" from="-758391347" to="758391368#0"/>
    <trip id="219" depart="1314.00" from="169543292#0" to="750501584#15"/>
    <trip id="220" depart="1320.00" from="47811219#2" to="993213440"/>
    <trip id="221" depart="1326.00" from="31285085#5" to="786352439#2"/>
    <trip id="222" depart="1332.00" from="760445556#10" to="41593074"/>
    <trip id="223" depart="1338.00" from="607843788#1" to="264409111#2"/>
    <trip id="224" depart="1344.00" from="757037245#0" to="31254283#2"/>
    <trip id="225" depart="1350.00" from="761361232#0" to="714361126#5"/>
    <trip id="226" depart="1356.00" from="182697781" to="-786295848"/>
    <trip id="227" depart="1362.00" from="-757095604" to="48737683#4"/>
    <trip id="228" depart="1368.00" from="714370112" to="29493814#3"/>
    <trip id="229" depart="1374.00" from="41570143#2" to="-993395635#1"/>
    <trip id="230" depart="1380.00" from="-162385007#6" to="113105647#1"/>
    <trip id="231" depart="1386.00" from="-758999795#4" to="1237946651#1"/>
    <trip id="232" depart="1392.00" from="264409109#3" to="-41593073#2"/>
    <trip id="233" depart="1398.00" from="-757078208#0" to="640287838#1"/>
    <trip id="234" depart="1404.00" from="579074816" to="-160236066#0"/>
    <trip id="235" depart="1410.00" from="159152502#1" to="31250671#1"/>
    <trip id="236" depart="1416.00" from="160236049" to="-750501602#4"/>
    <trip id="237" depart="1422.00" from="160236061#3" to="761361244"/>
    <trip id="238" depart="1428.00" from="31250741" to="640287849#3"/>
    <trip id="239" depart="1434.00" from="758465542#0" to="742653798#6"/>
    <trip id="240" depart="1440.00" from="1356543509#2" to="-1148897217"/>
    <trip id="241" depart="1446.00" from="1237946655" to="714372713#2"/>
    <trip id="242" depart="1452.00" from="758465521#2" to="794554330#1"/>
    <trip id="243" depart="1458.00" from="160236061#0" to="714362126#4"/>
    <trip id="244" depart="1464.00" from="270282932" to="41593068#1"/>
    <trip id="245" depart="1470.00" from="-750501584#9" to="-757095593#1"/>
    <trip id="246" depart="1476.00" from="162368304#0" to="-1309612330#0"/>
    <trip id="247" depart="1482.00" from="1173353139" to="579563412#1"/>
    <trip id="248" depart="1488.00" from="156656840#2" to="-641231335#0"/>
    <trip id="249" depart="1494.00" from="180390681#1" to="-312871737#4"/>
    <trip id="250" depart="1500.00" from="41570132#2" to="-1278084653#1"/>
    <trip id="251" depart="1506.00" from="137931893#3" to="312871737#5"/>
    <trip id="252" depart="1512.00" from="-1270323945#5" to="49324447#3"/>
    <trip id="253" depart="1518.00" from="-47811219#1" to="23136413#9"/>
    <trip id="254" depart="1524.00" from="-158997415#3" to="160234775#3"/>
    <trip id="255" depart="1530.00" from="-749883648#7" to="1240335690"/>
    <trip id="256" depart="1536.00" from="714362123#5" to="160234775#3"/>
    <trip id="257" depart="1542.00" from="706923925#2" to="757094102#1"/>
    <trip id="258" depart="1548.00" from="-758465542#1" to="-162392786#2"/>
    <trip id="259" depart="1554.00" from="-1219975907" to="31249858#2"/>
    <trip id="260" depart="1560.00" from="994109120" to="1356543509#7"/>
    <trip id="261" depart="1566.00" from="41593077#1" to="749883623#1"/>
    <trip id="262" depart="1572.00" from="41593079#1" to="714372714#2"/>
    <trip id="263" depart="1578.00" from="786352439#0" to="-750501584#19"/>
    <trip id="264" depart="1584.00" from="-122494737#2" to="-572827181"/>
    <trip id="265" depart="1590.00" from="-41593072#4" to="578868863#3"/>
    <trip id="266" depart="1596.00" from="29493816#8" to="-757095583"/>
    <trip id="267" depart="1602.00" from="578842217#0" to="742653799#1"/>
    <trip id="268" depart="1608.00" from="-641589067" to="41593072#4"/>
    <trip id="269" depart="1614.00" from="706923916#1" to="-270282933#0"/>
    <trip id="270" depart="1620.00" from="750501584#4" to="978296550#0"/>
    <trip id="271" depart="1626.00" from="-270282937" to="-1270323945#3"/>
    <trip id="272" depart="1632.00" from="1078221054#0" to="579286169#4"/>
    <trip id="273" depart="1638.00" from="837943004" to="160440795#3"/>
    <trip id="274" depart="1644.00" from="579563420" to="-162385001#1"/>
    <trip id="275" depart="1650.00" from="578842202" to="47657360#1"/>
    <trip id="276" depart="1656.00" from="-25797904#1" to="747351275#1"/>
    <trip id="277" depart="1662.00" from="758399302" to="41590605#6"/>
    <trip id="278" depart="1668.00" from="-41570142#2" to="990219990#2"/>
    <trip id="279" depart="1674.00" from="747351267#1" to="1353309604"/>
    <trip id="280" depart="1680.00" from="160440792#1" to="156570576#0"/>
    <trip id="281" depart="1686.00" from="232874884#13" to="1309612331#2"/>
    <trip id="282" depart="1692.00" from="758391368#0" to="757074967#0"/>
    <trip id="283" depart="1698.00" from="-264425717" to="858724804#1"/>
    <trip id="284" depart="1704.00" from="41590605#16" to="757094093#1"/>
    <trip id="285" depart="1710.00" from="579074818#1" to="180391474#1"/>
    <trip id="286" depart="1716.00" from="642602947" to="978296550#3"/>
    <trip id="287" depart="1722.00" from="-758482306#2" to="750501588#1"/>
    <trip id="288" depart="1728.00" from="264409108#1" to="232887452#0"/>
    <trip id="289" depart="1734.00" from="162364890#1" to="706923914#2"/>
    <trip id="290" depart="1740.00" from="-758479427#2" to="758465519"/>
    <trip id="291" depart="1746.00" from="757037245#1" to="-168175849#1"/>
    <trip id="292" depart="1752.00" from="759005736#2" to="-761361243"/>
    <trip id="293" depart="1758.00" from="179734195#0" to="41593073#11"/>
    <trip id="294" depart="1764.00" from="1356543509#1" to="-1305886621#3"/>
    <trip id="295" depart="1770.00" from="758465515#2" to="-714361124#6"/>
    <trip id="296" depart="1776.00" from="-749883668" to="749883680"/>
    <trip id="297" depart="1782.00" from="1199395939#1" to="759005730#1"/>
    <trip id="298" depart="1788.00" from="578842217#7" to="1017533393#0"/>
    <trip id="299" depart="1794.00" from="-1173353125#2" to="786282147"/>
    <trip id="300" depart="1800.00" from="-179564500#4" to="65692233#6"/>
    <trip id="301" depart="1806.00" from="23109528#10" to="725271358"/>
    <trip id="302" depart="1812.00" from="578842202" to="573603743"/>
    <trip id="303" depart="1818.00" from="23109784" to="749883664"/>
    <trip id="304" depart="1824.00" from="-23128864#6" to="-758465528"/>
    <trip id="305" depart="1830.00" from="578842204#2" to="1173353145"/>
    <trip id="306" depart="1836.00" from="31250671#0" to="232874885#3"/>
    <trip id="307" depart="1842.00" from="252236007#4" to="179564500#4"/>
    <trip id="308" depart="1848.00" from="706923911#0" to="1263610363#2"/>
    <trip id="309" depart="1854.00" from="578868862#1" to="-984178472#0"/>
    <trip id="310" depart="1860.00" from="-758465530#2" to="-29493812#3"/>
    <trip id="311" depart="1866.00" from="-706923916#1" to="-285829035#0"/>
    <trip id="312" depart="1872.00" from="263736795" to="742653797#0"/>
    <trip id="313" depart="1878.00" from="-66056507#4" to="-757094093#5"/>
    <trip id="314" depart="1884.00" from="23052638#2" to="67151515#3"/>
    <trip id="315" depart="1890.00" from="979454448#1" to="29493816#3"/>
    <trip id="316" depart="1896.00" from="-762328087#1" to="-232871336#3"/>
    <trip id="317" depart="1902.00" from="-706926295#2" to="-758465892#1"/>
    <trip id="318" depart="1908.00" from="-642572754" to="-1173353138#16"/>
    <trip id="319" depart="1914.00" from="261060436#0" to="-993395635#0"/>
    <trip id="320" depart="1920.00" from="979454442#3" to="31283701#9"/>
    <trip id="321" depart="1926.00" from="578842215#2" to="-31285360#2"/>
    <trip id="322" depart="1932.00" from="758466064#4" to="252235823#0"/>
    <trip id="323" depart="1938.00" from="758479409#2" to="32189366#2"/>
    <trip id="324" depart="1944.00" from="180391474#0" to="184370188#1"/>
    <trip id="325" depart="1950.00" from="-66056507#1" to="-159152502#0"/>
    <trip id="326" depart="1956.00" from="784906019#1" to="232874892#4"/>
    <trip id="327" depart="1962.00" from="750501601#1" to="162368304#2"/>
    <trip id="328" depart="1968.00" from="-162385002#0" to="47657367#3"/>
    <trip id="329" depart="1974.00" from="-159153395#2" to="-48902392#2"/>
    <trip id="330" depart="1980.00" from="29493816#3" to="1173353138#5"/>
    <trip id="331" depart="1986.00" from="993415053#0" to="-285692163#3"/>
    <trip id="332" depart="1992.00" from="714370103" to="41593072#11"/>
    <trip id="333" depart="1998.00" from="747352537#4" to="-758465543#4"/>
    <trip id="334" depart="2004.00" from="23370339#5" to="23052638#8"/>
    <trip id="335" depart="2010.00" from="162385002#1" to="758465559"/>
    <trip id="336" depart="2016.00" from="993395631#0" to="1173353141"/>
    <trip id="337" depart="2022.00" from="41570128#3" to="41593073#11"/>
    <trip id="338" depart="2028.00" from="66056507#5" to="786282144#1"/>
    <trip id="339" depart="2034.00" from="-747362366#3" to="-757040104#0"/>
    <trip id="340" depart="2040.00" from="42746179#0" to="-578842215#4"/>
    <trip id="341" depart="2046.00" from="-642204495#1" to="-162385000#1"/>
    <trip id="342" depart="2052.00" from="-1078221054#0" to="23052638#8"/>
    <trip id="343" depart="2058.00" from="31285085#10" to="1149567869"/>
    <trip id="344" depart="2064.00" from="-757078208#1" to="642204495#0"/>
    <trip id="345" depart="2070.00" from="578868862#1" to="23109528#5"/>
    <trip id="346" depart="2076.00" from="578819523#0" to="776901333#0"/>
    <trip id="347" depart="2082.00" from="747351277#0" to="463601470#1"/>
    <trip id="348" depart="2088.00" from="42850528#1" to="784271373"/>
    <trip id="349" depart="2094.00" from="160440782#4" to="31250739#2"/>
    <trip id="350" depart="2100.00" from="41593073#7" to="761682723#4"/>
    <trip id="351" depart="2106.00" from="753063497#2" to="-162368304#2"/>
    <trip id="352" depart="2112.00" from="-641589059" to="1173353147"/>
    <trip id="353" depart="2118.00" from="706923917#0" to="32077647#1"/>
    <trip id="354" depart="2124.00" from="-781934821" to="-31250671#0"/>
    <trip id="355" depart="2130.00" from="578842195#2" to="641589065"/>
    <trip id="356" depart="2136.00" from="784925586#0" to="263736795"/>
    <trip id="357" depart="2142.00" from="23134593" to="-162385008#1"/>
    <trip id="358" depart="2148.00" from="-137931888#0" to="179745735"/>
    <trip id="359" depart="2154.00" from="1149179827" to="-762182234#4"/>
    <trip id="360" depart="2160.00" from="-23098507" to="888550612"/>
    <trip id="361" depart="2166.00" from="757094092#0" to="363832468#3"/>
    <trip id="362" depart="2172.00" from="787243333" to="994109119"/>
    <trip id="363" depart="2178.00" from="48737676#8" to="-981478324#0"/>
    <trip id="364" depart="2184.00" from="-137931888#1" to="714372718#5"/>
    <trip id="365" depart="2190.00" from="180395192" to="578819515"/>
    <trip id="366" depart="2196.00" from="762328091" to="-714361124#4"/>
    <trip id="367" depart="2202.00" from="31250742#4" to="48737676#6"/>
    <trip id="368" depart="2208.00" from="23128778" to="-179734193#0"/>
    <trip id="369" depart="2214.00" from="122494743" to="1270323945#4"/>
    <trip id="370" depart="2220.00" from="47855702#5" to="758465543#2"/>
    <trip id="371" depart="2226.00" from="1173353135" to="640287838#1"/>
    <trip id="372" depart="2232.00" from="-780976043#2" to="786282137#1"/>
    <trip id="373" depart="2238.00" from="750501584#10" to="31283697#3"/>
    <trip id="374" depart="2244.00" from="168175855#1" to="122494737#0"/>
    <trip id="375" depart="2250.00" from="1173353105#0" to="979454436#1"/>
    <trip id="376" depart="2256.00" from="156656840#1" to="287907914#0"/>
    <trip id="377" depart="2262.00" from="993213448#0" to="578842205#1"/>
    <trip id="378" depart="2268.00" from="264425717" to="162385008#1"/>
    <trip id="379" depart="2274.00" from="-67151515#1" to="137931893#1"/>
    <trip id="380" depart="2280.00" from="714361124#0" to="46906456#0"/>
    <trip id="381" depart="2286.00" from="714362123#0" to="-750501584#7"/>
    <trip id="382" depart="2292.00" from="279486300" to="780976045"/>
    <trip id="383" depart="2298.00" from="162381544#0" to="641589059"/>
    <trip id="384" depart="2304.00" from="-41570142#3" to="979454442#3"/>
    <trip id="385" depart="2310.00" from="32077649#0" to="-758999795#0"/>
    <trip id="386" depart="2316.00" from="-639991318" to="31283697#6"/>
    <trip id="387" depart="2322.00" from="287907711#0" to="-180390681#4"/>
    <trip id="388" depart="2328.00" from="993397981" to="762328080#2"/>
    <trip id="389" depart="2334.00" from="179566164#0" to="-279486300"/>
    <trip id="390" depart="2340.00" from="757040106#1" to="262978291#1"/>
    <trip id="391" depart="2346.00" from="585657737" to="270282933#1"/>
    <trip id="392" depart="2352.00" from="-760111260" to="757095592#1"/>
    <trip id="393" depart="2358.00" from="984178472#1" to="-761361243"/>
    <trip id="394" depart="2364.00" from="285692163#5" to="160234792"/>
    <trip id="395" depart="2370.00" from="773165180#9" to="270282933#1"/>
    <trip id="396" depart="2376.00" from="759005736#0" to="758465595"/>
    <trip id="397" depart="2382.00" from="-761361248" to="749883648#8"/>
    <trip id="398" depart="2388.00" from="160234799" to="784292856"/>
    <trip id="399" depart="2394.00" from="232874884#4" to="757040104#1"/>
    <trip id="400" depart="2400.00" from="-762328087#1" to="1173353130"/>