<?xml version="1.0" encoding="UTF-8"?>

<!-- generated on 2025-03-10 09:04:19.333334 by randomTrips.py v1_22_0+0002-63e50f52594
<configuration>
    <net-file value="c:\Users\Jun Kit\Desktop\Designing-Intelligent-Agents\src\python\..\network\GeorgeTown.net.xml"/>
    <output-trip-file value="c:\Users\Jun Kit\Desktop\Designing-Intelligent-Agents\src\python\..\routes\GeorgeTown_low.trips.xml"/>
    <route-file value="c:\Users\Jun Kit\Desktop\Designing-Intelligent-Agents\src\python\..\routes\GeorgeTown_low.rou.xml"/>
    <fringe-factor value="5"/>
    <validate value="True"/>
    <insertion-rate value="200.0"/>
</configuration>
-->

<routes xmlns:xsi="http://www.w3.org/2001/XMLSchema-instance" xsi:noNamespaceSchemaLocation="http://sumo.dlr.de/xsd/routes_file.xsd">
    <trip id="0" depart="0.00" from="41593066#2" to="-1270323945#0"/>
    <trip id="1" depart="18.00" from="-761361242" to="-758465542#0"/>
    <trip id="2" depart="36.00" from="65692233#3" to="579286169#1"/>
    <trip id="3" depart="54.00" from="760445556#3" to="-168175852#0"/>
    <trip id="4" depart="72.00" from="160439553#1" to="-1309612332#0"/>
    <trip id="5" depart="90.00" from="-750501584#3" to="264409111#4"/>
    <trip id="6" depart="108.00" from="-1270323945#5" to="-750501584#17"/>
    <trip id="7" depart="126.00" from="41593077#0" to="31250741"/>
    <trip id="8" depart="144.00" from="-750501584#9" to="41570143#0"/>
    <trip id="9" depart="162.00" from="749883673#0" to="-1148897218#2"/>
    <trip id="10" depart="180.00" from="749883660" to="641231358#1"/>
    <trip id="11" depart="198.00" from="1199395939#0" to="-578842204#1"/>
    <trip id="12" depart="216.00" from="836888229#0" to="1278084654"/>
    <trip id="13" depart="234.00" from="-23128864#5" to="-182488021"/>
    <trip id="14" depart="252.00" from="758391348" to="41593068#3"/>
    <trip id="15" depart="270.00" from="749883667#0" to="698179755"/>
    <trip id="16" depart="288.00" from="263737498#0" to="979454442#3"/>
    <trip id="17" depart="306.00" from="1356543509#0" to="31283701#4"/>
    <trip id="18" depart="324.00" from="756622100#2" to="41657433#2"/>
    <trip id="19" depart="342.00" from="758465583" to="41570122#11"/>
    <trip id="20" depart="360.00" from="579074809" to="-156570278#6"/>
    <trip id="21" depart="378.00" from="-757037245#0" to="1148899870#2"/>
    <trip id="22" depart="396.00" from="-162392786#3" to="-758466064#9"/>
    <trip id="23" depart="414.00" from="-252235823#8" to="1018158043#0"/>
    <trip id="24" depart="432.00" from="41590605#16" to="156570278#1"/>
    <trip id="25" depart="450.00" from="1309612330#0" to="-757037241#1"/>
    <trip id="26" depart="468.00" from="-758479409#1" to="784800203"/>
    <trip id="27" depart="486.00" from="41593073#9" to="41593073#1"/>
    <trip id="28" depart="504.00" from="-642158453" to="688199320#9"/>
    <trip id="29" depart="522.00" from="-641205823#1" to="160234781#0"/>
    <trip id="30" depart="540.00" from="993213469" to="49001555"/>
    <trip id="31" depart="558.00" from="290825445#2" to="607843788#0"/>
    <trip id="32" depart="576.00" from="757095610#0" to="747351289#1"/>
    <trip id="33" depart="594.00" from="-757037251#1" to="-1356543509#0"/>
    <trip id="34" depart="612.00" from="1096717068" to="-979454447#0"/>
    <trip id="35" depart="630.00" from="-749883648#4" to="784925582"/>
    <trip id="36" depart="648.00" from="758999795#1" to="122494737#1"/>
    <trip id="37" depart="666.00" from="41657435" to="160440793#2"/>
    <trip id="38" depart="684.00" from="762328087#1" to="23136413#0"/>
    <trip id="39" depart="702.00" from="-758479406#2" to="-761463321#2"/>
    <trip id="40" depart="720.00" from="29493816#1" to="-836714542#0"/>
    <trip id="41" depart="738.00" from="31250742#1" to="760556928#0"/>
    <trip id="42" depart="756.00" from="156570525#1" to="-757095593#1"/>
    <trip id="43" depart="774.00" from="993415065#6" to="270282937"/>
    <trip id="44" depart="792.00" from="-184397866#1" to="-156570532#1"/>
    <trip id="45" depart="810.00" from="-285692163#2" to="47657360#2"/>
    <trip id="46" depart="828.00" from="747362362#1" to="169543292#4"/>
    <trip id="47" depart="846.00" from="-160440782#3" to="160234784#1"/>
    <trip id="48" depart="864.00" from="993415065#0" to="31249839#1"/>
    <trip id="49" depart="882.00" from="979454435#1" to="758465568"/>
    <trip id="50" depart="900.00" from="-1173353136" to="66056507#1"/>
    <trip id="51" depart="918.00" from="573603757" to="31249852#0"/>
    <trip id="52" depart="936.00" from="-758479409#0" to="49324446#1"/>
    <trip id="53" depart="954.00" from="-29493812#1" to="180391242"/>
    <trip id="54" depart="972.00" from="168175852#0" to="819375167#1"/>
    <trip id="55" depart="990.00" from="758999795#0" to="-836714542#0"/>
    <trip id="56" depart="1008.00" from="23159641" to="-706923916#1"/>
    <trip id="57" depart="1026.00" from="762328080#2" to="758466064#7"/>
    <trip id="58" depart="1044.00" from="-981478324#0" to="48902392#3"/>
    <trip id="59" depart="1062.00" from="32077649#1" to="-572827189"/>
    <trip id="60" depart="1080.00" from="714362126#1" to="31249858#2"/>
    <trip id="61" depart="1098.00" from="742653798#4" to="31249841#2"/>
    <trip id="62" depart="1116.00" from="-1017533393#1" to="1240335688#2"/>
    <trip id="63" depart="1134.00" from="-122494736" to="781928193"/>
    <trip id="64" depart="1152.00" from="759005730#0" to="757094102#0"/>
    <trip id="65" depart="1170.00" from="1018158035" to="-160234792"/>
    <trip id="66" depart="1188.00" from="759005726#0" to="786282143#0"/>
    <trip id="67" depart="1206.00" from="-179564507#0" to="23370339#5"/>
    <trip id="68" depart="1224.00" from="-162381543" to="742645993"/>
    <trip id="69" depart="1242.00" from="714370112" to="-363832561#1"/>
    <trip id="70" depart="1260.00" from="183547134" to="31283697#2"/>
    <trip id="71" depart="1278.00" from="-758479406#2" to="758479406#4"/>
    <trip id="72" depart="1296.00" from="160439701#0" to="-757074967#1"/>
    <trip id="73" depart="1314.00" from="264409109#0" to="698179757"/>
    <trip id="74" depart="1332.00" from="-747351262#0" to="1215226726#1"/>
    <trip id="75" depart="1350.00" from="993415057" to="573603768#1"/>
    <trip id="76" depart="1368.00" from="162381544#0" to="290825445#1"/>
    <trip id="77" depart="1386.00" from="-41570142#2" to="-758465543#0"/>
    <trip id="78" depart="1404.00" from="1173353148" to="41570142#0"/>
    <trip id="79" depart="1422.00" from="-757040104#1" to="-757095608#1"/>
    <trip id="80" depart="1440.00" from="-162384997#4" to="47811221#1"/>
    <trip id="81" depart="1458.00" from="-757037251#1" to="761361247"/>
    <trip id="82" depart="1476.00" from="758465543#6" to="-162368304#0"/>
    <trip id="83" depart="1494.00" from="-757094099" to="578868863#1"/>
    <trip id="84" depart="1512.00" from="-750501584#13" to="-41570143#4"/>
    <trip id="85" depart="1530.00" from="784811174" to="32077649#1"/>
    <trip id="86" depart="1548.00" from="182040210#3" to="749883640#1"/>
    <trip id="87" depart="1566.00" from="749883667#1" to="-747362364#1"/>
    <trip id="88" depart="1584.00" from="-232874896" to="179745731"/>
    <trip id="89" depart="1602.00" from="160439703#0" to="232871336#2"/>
    <trip id="90" depart="1620.00" from="641589077#0" to="579261136#1"/>
    <trip id="91" depart="1638.00" from="990219990#3" to="-23128864#3"/>
    <trip id="92" depart="1656.00" from="156570576#2" to="1309612329#0"/>
    <trip id="93" depart="1674.00" from="758465583" to="-762177035#2"/>
    <trip id="94" depart="1692.00" from="-688199320#4" to="23052638#11"/>
    <trip id="95" depart="1710.00" from="160439553#1" to="1018173700#0"/>
    <trip id="96" depart="1728.00" from="-758465522#0" to="773165180#9"/>
    <trip id="97" depart="1746.00" from="162385003#0" to="758465578"/>
    <trip id="98" depart="1764.00" from="285692163#1" to="-158997415#5"/>
    <trip id="99" depart="1782.00" from="993537260#1" to="757095595"/>
    <trip id="100" depart="1800.00" from="979454433" to="780546368"/>
    <trip id="101" depart="1818.00" from="758391360#0" to="-641589072#0"/>
    <trip id="102" depart="1836.00" from="23052638#7" to="-757094056#0"/>
    <trip id="103" depart="1854.00" from="156570531#0" to="-160234799"/>
    <trip id="104" depart="1872.00" from="1356543509#1" to="992998728"/>
    <trip id="105" depart="1890.00" from="-758479406#3" to="749883638"/>
    <trip id="106" depart="1908.00" from="168175855#1" to="174042705#0"/>
    <trip id="107" depart="1926.00" from="836888229#0" to="993415058"/>
    <trip id="108" depart="1944.00" from="290825442#1" to="65684838"/>
    <trip id="109" depart="1962.00" from="-595827369" to="1173353125#2"/>
    <trip id="110" depart="1980.00" from="979454432#1" to="41570122#6"/>
    <trip id="111" depart="1998.00" from="264409111#4" to="714370089"/>
    <trip id="112" depart="2016.00" from="-160234784#1" to="41570128#3"/>
    <trip id="113" depart="2034.00" from="23159712#3" to="758465521#3"/>
    <trip id="114" depart="2052.00" from="-639991284" to="858724804#1"/>
    <trip id="115" depart="2070.00" from="-162392786#4" to="-747351275#2"/>
    <trip id="116" depart="2088.00" from="31285085#4" to="579261137#4"/>
    <trip id="117" depart="2106.00" from="-757094056#1" to="-29493812#0"/>
    <trip id="118" depart="2124.00" from="760111261" to="-761463321#1"/>
    <trip id="119" depart="2142.00" from="31285085#2" to="41657433#6"/>
    <trip id="120" depart="2160.00" from="160236061#0" to="41570128#1"/>
    <trip id="121" depart="2178.00" from="23370339#6" to="784292856"/>
    <trip id="122" depart="2196.00" from="-747351289#1" to="642581140"/>
    <trip id="123" depart="2214.00" from="-757094099" to="160440793#2"/>
    <trip id="124" depart="2232.00" from="48737676#6" to="1173353137"/>
    <trip id="125" depart="2250.00" from="1118021472#0" to="714372712"/>
    <trip id="126" depart="2268.00" from="-162385000#1" to="23134593"/>
    <trip id="127" depart="2286.00" from="993415066#2" to="993415065#0"/>
    <trip id="128" depart="2304.00" from="-162385001#0" to="-757090905#1"/>
    <trip id="129" depart="2322.00" from="-758479406#3" to="783956183"/>
    <trip id="130" depart="2340.00" from="759005736#14" to="759005726#0"/>
    <trip id="131" depart="2358.00" from="1309612329#0" to="-579261136#0"/>
    <trip id="132" depart="2376.00" from="757074968" to="641589077#1"/>
    <trip id="133" depart="2394.00" from="32189366#1" to="993213438#1"/>
    <trip id="134" depart="2412.00" from="41657433#2" to="-1148899870#2"/>
    <trip id="135" depart="2430.00" from="750501584#23" to="1173353135"/>
    <trip id="136" depart="2448.00" from="46906456#4" to="784834190"/>
    <trip id="137" depart="2466.00" from="-47657360#2" to="-270282937"/>
    <trip id="138" depart="2484.00" from="-270282933#1" to="31283701#9"/>
    <trip id="139" depart="2502.00" from="-759005730#1" to="41593069#3"/>
    <trip id="140" depart="2520.00" from="587789127#3" to="-750501584#7"/>
    <trip id="141" depart="2538.00" from="41590605#10" to="-836714542#2"/>
    <trip id="142" depart="2556.00" from="23109528#10" to="761361247"/>
    <trip id="143" depart="2574.00" from="758391343" to="-180390681#1"/>
    <trip id="144" depart="2592.00" from="160439703#0" to="1017533393#1"/>
    <trip id="145" depart="2610.00" from="-1079925970#1" to="747351269"/>
    <trip id="146" depart="2628.00" from="41590605#6" to="-819375167#0"/>
    <trip id="147" depart="2646.00" from="67151515#1" to="31283701#2"/>
    <trip id="148" depart="2664.00" from="160440789#2" to="-1173353116"/>
    <trip id="149" depart="2682.00" from="-162385003#2" to="759005736#2"/>
    <trip id="150" depart="2700.00" from="761361247" to="31250742#2"/>
    <trip id="151" depart="2718.00" from="757090904" to="41570126#1"/>
    <trip id="152" depart="2736.00" from="-578842204#0" to="-312871737#3"/>
    <trip id="153" depart="2754.00" from="1018158043#0" to="761361232#1"/>
    <trip id="154" depart="2772.00" from="749883630" to="758465559"/>
    <trip id="155" depart="2790.00" from="761361232#14" to="-757037244#1"/>
    <trip id="156" depart="2808.00" from="-758391348" to="-232874892#6"/>
    <trip id="157" depart="2826.00" from="742653799#0" to="759005736#6"/>
    <trip id="158" depart="2844.00" from="158997415#5" to="41657437#1"/>
    <trip id="159" depart="2862.00" from="-595827369" to="781928198"/>
    <trip id="160" depart="2880.00" from="758465892#3" to="979454515#1"/>
    <trip id="161" depart="2898.00" from="749883678" to="759005736#11"/>
    <trip id="162" depart="2916.00" from="-1263610365#1" to="706924494#1"/>
    <trip id="163" depart="2934.00" from="1173353138#15" to="783915110#1"/>
    <trip id="164" depart="2952.00" from="749883648#3" to="758465595"/>
    <trip id="165" depart="2970.00" from="749883678" to="-979454443#0"/>
    <trip id="166" depart="2988.00" from="747351275#7" to="-25797904#1"/>
    <trip id="167" depart="3006.00" from="758479409#0" to="758465543#6"/>
    <trip id="168" depart="3024.00" from="-750501602#10" to="757037230"/>
    <trip id="169" depart="3042.00" from="179564507#0" to="1173353140"/>
    <trip id="170" depart="3060.00" from="749883624#0" to="-758465892#2"/>
    <trip id="171" depart="3078.00" from="-1263610363#3" to="-749883640#4"/>
    <trip id="172" depart="3096.00" from="1173353128" to="758465608"/>
    <trip id="173" depart="3114.00" from="978296550#3" to="1018173701"/>
    <trip id="174" depart="3132.00" from="41593069#2" to="162360688#2"/>
    <trip id="175" depart="3150.00" from="985069016#1" to="31249850#0"/>
    <trip id="176" depart="3168.00" from="784896632#0" to="-270282933#0"/>
    <trip id="177" depart="3186.00" from="979454434#5" to="-706923916#1"/>
    <trip id="178" depart="3204.00" from="858726279#1" to="-975342603"/>
    <trip id="179" depart="3222.00" from="-275395206" to="180390898#1"/>
    <trip id="180" depart="3240.00" from="641589072#1" to="1220172096#0"/>
    <trip id="181" depart="3258.00" from="32062891#0" to="285692163#2"/>
    <trip id="182" depart="3276.00" from="137903968#3" to="41570122#0"/>
    <trip id="183" depart="3294.00" from="-758465543#5" to="642204497#1"/>
    <trip id="184" depart="3312.00" from="-1044686845#0" to="776901333#7"/>
    <trip id="185" depart="3330.00" from="264409108#2" to="65692233#3"/>
    <trip id="186" depart="3348.00" from="688080681#0" to="579074811"/>
    <trip id="187" depart="3366.00" from="1270323945#2" to="-162368304#0"/>
    <trip id="188" depart="3384.00" from="47657360#2" to="1263610363#0"/>
    <trip id="189" depart="3402.00" from="1086378765" to="758391360#1"/>
    <trip id="190" depart="3420.00" from="616330694#0" to="1173353138#0"/>
    <trip id="191" depart="3438.00" from="1018173701" to="162385002#0"/>
    <trip id="192" depart="3456.00" from="156570576#1" to="1173353125#0"/>
    <trip id="193" depart="3474.00" from="-41593072#8" to="168175856#0"/>
    <trip id="194" depart="3492.00" from="784906016" to="579286169#4"/>
    <trip id="195" depart="3510.00" from="761361241#1" to="41593078#0"/>
    <trip id="196" depart="3528.00" from="-984178457#2" to="31254283#2"/>
    <trip id="197" depart="3546.00" from="-1017533393#0" to="1137561933#1"/>
    <trip id="198" depart="3564.00" from="160440793#2" to="41570122#9"/>
    <trip id="199" depart="3582.00" from="41657433#4" to="23159706#1"/>
</routes>
