<?xml version="1.0" encoding="UTF-8"?>

<!-- generated on 2025-04-27 19:37:21 by Eclipse SUMO netconvert Version 1.22.0
<netconvertConfiguration xmlns:xsi="http://www.w3.org/2001/XMLSchema-instance" xsi:noNamespaceSchemaLocation="http://sumo.dlr.de/xsd/netconvertConfiguration.xsd">

    <input>
        <node-files value="curriculum_scenarios\four_way_1lane\four_way_1lane.nod.xml"/>
        <edge-files value="curriculum_scenarios\four_way_1lane\four_way_1lane.edg.xml"/>
    </input>

    <output>
        <output-file value="curriculum_scenarios\four_way_1lane\four_way_1lane.net.xml"/>
    </output>

    <tls_building>
        <tls.green.time value="30"/>
        <tls.yellow.time value="4"/>
        <tls.red.time value="1"/>
    </tls_building>

    <junctions>
        <no-turnarounds value="true"/>
    </junctions>

</netconvertConfiguration>
-->

<net version="1.20" junctionCornerDetail="5" limitTurnSpeed="5.50" xmlns:xsi="http://www.w3.org/2001/XMLSchema-instance" xsi:noNamespaceSchemaLocation="http://sumo.dlr.de/xsd/net_file.xsd">

    <location netOffset="200.00,200.00" convBoundary="0.00,0.00,400.00,400.00" origBoundary="-200.00,-200.00,200.00,200.00" projParameter="!"/>

    <edge id=":center_0" function="internal">
        <lane id=":center_0_0" index="0" speed="6.51" length="9.03" shape="198.40,207.20 198.05,204.75 197.00,203.00 195.25,201.95 192.80,201.60"/>
    </edge>
    <edge id=":center_1" function="internal">
        <lane id=":center_1_0" index="0" speed="13.89" length="14.40" shape="198.40,207.20 198.40,192.80"/>
    </edge>
    <edge id=":center_2" function="internal">
        <lane id=":center_2_0" index="0" speed="8.00" length="4.07" shape="198.40,207.20 198.95,203.35 199.04,203.20"/>
    </edge>
    <edge id=":center_12" function="internal">
        <lane id=":center_12_0" index="0" speed="8.00" length="10.13" shape="199.04,203.20 200.60,200.60 203.35,198.95 207.20,198.40"/>
    </edge>
    <edge id=":center_3" function="internal">
        <lane id=":center_3_0" index="0" speed="6.51" length="9.03" shape="207.20,201.60 204.75,201.95 203.00,203.00 201.95,204.75 201.60,207.20"/>
    </edge>
    <edge id=":center_4" function="internal">
        <lane id=":center_4_0" index="0" speed="13.89" length="14.40" shape="207.20,201.60 192.80,201.60"/>
    </edge>
    <edge id=":center_5" function="internal">
        <lane id=":center_5_0" index="0" speed="8.00" length="4.07" shape="207.20,201.60 203.35,201.05 203.20,200.96"/>
    </edge>
    <edge id=":center_13" function="internal">
        <lane id=":center_13_0" index="0" speed="8.00" length="10.13" shape="203.20,200.96 200.60,199.40 198.95,196.65 198.40,192.80"/>
    </edge>
    <edge id=":center_6" function="internal">
        <lane id=":center_6_0" index="0" speed="6.51" length="9.03" shape="201.60,192.80 201.95,195.25 203.00,197.00 204.75,198.05 207.20,198.40"/>
    </edge>
    <edge id=":center_7" function="internal">
        <lane id=":center_7_0" index="0" speed="13.89" length="14.40" shape="201.60,192.80 201.60,207.20"/>
    </edge>
    <edge id=":center_8" function="internal">
        <lane id=":center_8_0" index="0" speed="8.00" length="4.07" shape="201.60,192.80 201.05,196.65 200.96,196.80"/>
    </edge>
    <edge id=":center_14" function="internal">
        <lane id=":center_14_0" index="0" speed="8.00" length="10.13" shape="200.96,196.80 199.40,199.40 196.65,201.05 192.80,201.60"/>
    </edge>
    <edge id=":center_9" function="internal">
        <lane id=":center_9_0" index="0" speed="6.51" length="9.03" shape="192.80,198.40 195.25,198.05 197.00,197.00 198.05,195.25 198.40,192.80"/>
    </edge>
    <edge id=":center_10" function="internal">
        <lane id=":center_10_0" index="0" speed="13.89" length="14.40" shape="192.80,198.40 207.20,198.40"/>
    </edge>
    <edge id=":center_11" function="internal">
        <lane id=":center_11_0" index="0" speed="8.00" length="4.07" shape="192.80,198.40 196.65,198.95 196.80,199.04"/>
    </edge>
    <edge id=":center_15" function="internal">
        <lane id=":center_15_0" index="0" speed="8.00" length="10.13" shape="196.80,199.04 199.40,200.60 201.05,203.35 201.60,207.20"/>
    </edge>

    <edge id="center_to_east" from="center" to="east" priority="100">
        <lane id="center_to_east_0" index="0" speed="13.89" length="192.80" shape="207.20,198.40 400.00,198.40"/>
    </edge>
    <edge id="center_to_north" from="center" to="north" priority="100">
        <lane id="center_to_north_0" index="0" speed="13.89" length="192.80" shape="201.60,207.20 201.60,400.00"/>
    </edge>
    <edge id="center_to_south" from="center" to="south" priority="100">
        <lane id="center_to_south_0" index="0" speed="13.89" length="192.80" shape="198.40,192.80 198.40,0.00"/>
    </edge>
    <edge id="center_to_west" from="center" to="west" priority="100">
        <lane id="center_to_west_0" index="0" speed="13.89" length="192.80" shape="192.80,201.60 0.00,201.60"/>
    </edge>
    <edge id="east_to_center" from="east" to="center" priority="100">
        <lane id="east_to_center_0" index="0" speed="13.89" length="192.80" shape="400.00,201.60 207.20,201.60"/>
    </edge>
    <edge id="north_to_center" from="north" to="center" priority="100">
        <lane id="north_to_center_0" index="0" speed="13.89" length="192.80" shape="198.40,400.00 198.40,207.20"/>
    </edge>
    <edge id="south_to_center" from="south" to="center" priority="100">
        <lane id="south_to_center_0" index="0" speed="13.89" length="192.80" shape="201.60,0.00 201.60,192.80"/>
    </edge>
    <edge id="west_to_center" from="west" to="center" priority="100">
        <lane id="west_to_center_0" index="0" speed="13.89" length="192.80" shape="0.00,198.40 192.80,198.40"/>
    </edge>

    <tlLogic id="center" type="static" programID="0" offset="0">
        <phase duration="30" state="GGgrrrGGgrrr"/>
        <phase duration="4"  state="yyyrrryyyrrr"/>
        <phase duration="30" state="rrrGGgrrrGGg"/>
        <phase duration="4"  state="rrryyyrrryyy"/>
    </tlLogic>

    <junction id="center" type="traffic_light" x="200.00" y="200.00" incLanes="north_to_center_0 east_to_center_0 south_to_center_0 west_to_center_0" intLanes=":center_0_0 :center_1_0 :center_12_0 :center_3_0 :center_4_0 :center_13_0 :center_6_0 :center_7_0 :center_14_0 :center_9_0 :center_10_0 :center_15_0" shape="196.80,207.20 203.20,207.20 203.64,204.98 204.20,204.20 204.98,203.64 205.98,203.31 207.20,203.20 207.20,196.80 204.98,196.36 204.20,195.80 203.64,195.02 203.31,194.02 203.20,192.80 196.80,192.80 196.36,195.02 195.80,195.80 195.02,196.36 194.02,196.69 192.80,196.80 192.80,203.20 195.02,203.64 195.80,204.20 196.36,204.98 196.69,205.98">
        <request index="0"  response="000000000000" foes="000100010000" cont="0"/>
        <request index="1"  response="100000100000" foes="111100110000" cont="0"/>
        <request index="2"  response="100111100000" foes="110111110000" cont="1"/>
        <request index="3"  response="000010000000" foes="100010000000" cont="0"/>
        <request index="4"  response="000110000111" foes="100110000111" cont="0"/>
        <request index="5"  response="111110000110" foes="111110000110" cont="1"/>
        <request index="6"  response="000000000000" foes="010000000100" cont="0"/>
        <request index="7"  response="100000100000" foes="110000111100" cont="0"/>
        <request index="8"  response="100000100011" foes="110000110111" cont="1"/>
        <request index="9"  response="000000000010" foes="000000100010" cont="0"/>
        <request index="10" response="000111000110" foes="000111100110" cont="0"/>
        <request index="11" response="000110011110" foes="000110111110" cont="1"/>
    </junction>
    <junction id="east" type="dead_end" x="400.00" y="200.00" incLanes="center_to_east_0" intLanes="" shape="400.00,200.00 400.00,196.80 400.00,200.00"/>
    <junction id="north" type="dead_end" x="200.00" y="400.00" incLanes="center_to_north_0" intLanes="" shape="200.00,400.00 203.20,400.00 200.00,400.00"/>
    <junction id="south" type="dead_end" x="200.00" y="0.00" incLanes="center_to_south_0" intLanes="" shape="200.00,0.00 196.80,0.00 200.00,0.00"/>
    <junction id="west" type="dead_end" x="0.00" y="200.00" incLanes="center_to_west_0" intLanes="" shape="0.00,200.00 0.00,203.20 0.00,200.00"/>

    <junction id=":center_12_0" type="internal" x="199.04" y="203.20" incLanes=":center_2_0 south_to_center_0" intLanes=":center_4_0 :center_5_0 :center_6_0 :center_7_0 :center_10_0 :center_11_0"/>
    <junction id=":center_13_0" type="internal" x="203.20" y="200.96" incLanes=":center_5_0 west_to_center_0" intLanes=":center_1_0 :center_2_0 :center_7_0 :center_8_0 :center_9_0 :center_10_0"/>
    <junction id=":center_14_0" type="internal" x="200.96" y="196.80" incLanes=":center_8_0 north_to_center_0" intLanes=":center_0_0 :center_1_0 :center_4_0 :center_5_0 :center_10_0 :center_11_0"/>
    <junction id=":center_15_0" type="internal" x="196.80" y="199.04" incLanes=":center_11_0 east_to_center_0" intLanes=":center_1_0 :center_2_0 :center_3_0 :center_4_0 :center_7_0 :center_8_0"/>

    <connection from="east_to_center" to="center_to_north" fromLane="0" toLane="0" via=":center_3_0" tl="center" linkIndex="3" dir="r" state="o"/>
    <connection from="east_to_center" to="center_to_west" fromLane="0" toLane="0" via=":center_4_0" tl="center" linkIndex="4" dir="s" state="o"/>
    <connection from="east_to_center" to="center_to_south" fromLane="0" toLane="0" via=":center_5_0" tl="center" linkIndex="5" dir="l" state="o"/>
    <connection from="north_to_center" to="center_to_west" fromLane="0" toLane="0" via=":center_0_0" tl="center" linkIndex="0" dir="r" state="O"/>
    <connection from="north_to_center" to="center_to_south" fromLane="0" toLane="0" via=":center_1_0" tl="center" linkIndex="1" dir="s" state="O"/>
    <connection from="north_to_center" to="center_to_east" fromLane="0" toLane="0" via=":center_2_0" tl="center" linkIndex="2" dir="l" state="o"/>
    <connection from="south_to_center" to="center_to_east" fromLane="0" toLane="0" via=":center_6_0" tl="center" linkIndex="6" dir="r" state="O"/>
    <connection from="south_to_center" to="center_to_north" fromLane="0" toLane="0" via=":center_7_0" tl="center" linkIndex="7" dir="s" state="O"/>
    <connection from="south_to_center" to="center_to_west" fromLane="0" toLane="0" via=":center_8_0" tl="center" linkIndex="8" dir="l" state="o"/>
    <connection from="west_to_center" to="center_to_south" fromLane="0" toLane="0" via=":center_9_0" tl="center" linkIndex="9" dir="r" state="o"/>
    <connection from="west_to_center" to="center_to_east" fromLane="0" toLane="0" via=":center_10_0" tl="center" linkIndex="10" dir="s" state="o"/>
    <connection from="west_to_center" to="center_to_north" fromLane="0" toLane="0" via=":center_11_0" tl="center" linkIndex="11" dir="l" state="o"/>

    <connection from=":center_0" to="center_to_west" fromLane="0" toLane="0" dir="r" state="M"/>
    <connection from=":center_1" to="center_to_south" fromLane="0" toLane="0" dir="s" state="M"/>
    <connection from=":center_2" to="center_to_east" fromLane="0" toLane="0" via=":center_12_0" dir="l" state="m"/>
    <connection from=":center_12" to="center_to_east" fromLane="0" toLane="0" dir="l" state="M"/>
    <connection from=":center_3" to="center_to_north" fromLane="0" toLane="0" dir="r" state="M"/>
    <connection from=":center_4" to="center_to_west" fromLane="0" toLane="0" dir="s" state="M"/>
    <connection from=":center_5" to="center_to_south" fromLane="0" toLane="0" via=":center_13_0" dir="l" state="m"/>
    <connection from=":center_13" to="center_to_south" fromLane="0" toLane="0" dir="l" state="M"/>
    <connection from=":center_6" to="center_to_east" fromLane="0" toLane="0" dir="r" state="M"/>
    <connection from=":center_7" to="center_to_north" fromLane="0" toLane="0" dir="s" state="M"/>
    <connection from=":center_8" to="center_to_west" fromLane="0" toLane="0" via=":center_14_0" dir="l" state="m"/>
    <connection from=":center_14" to="center_to_west" fromLane="0" toLane="0" dir="l" state="M"/>
    <connection from=":center_9" to="center_to_south" fromLane="0" toLane="0" dir="r" state="M"/>
    <connection from=":center_10" to="center_to_east" fromLane="0" toLane="0" dir="s" state="M"/>
    <connection from=":center_11" to="center_to_north" fromLane="0" toLane="0" via=":center_15_0" dir="l" state="m"/>
    <connection from=":center_15" to="center_to_north" fromLane="0" toLane="0" dir="l" state="M"/>

</net>
