<configuration xmlns:xsi="http://www.w3.org/2001/XMLSchema-instance" xsi:noNamespaceSchemaLocation="http://sumo.dlr.de/xsd/sumoConfiguration.xsd">
    <input>
        <net-file value="pasubio_buslanes.net.xml" />
        <additional-files value="pasubio_vtypes.add.xml,pasubio_bus_stops.add.xml,pasubio_busses.rou.xml,pasubio_detectors.add.xml,pasubio_tls.add.xml" />
    <route-files value="route_mixed_episode_6.rou.xml" /></input>
    
    <output>
        <tripinfo-output value="tripinfos.xml" />
    </output>
    
    <report>
        <log value="sumo_log.txt" />
        <no-step-log value="true" />
    </report>
    
</configuration>