<?xml version="1.0" encoding="UTF-8"?>
<routes xmlns:xsi="http://www.w3.org/2001/XMLSchema-instance" xsi:noNamespaceSchemaLocation="http://sumo.dlr.de/xsd/routes_file.xsd">
    <vType id="passenger" accel="0.8" decel="4.5" sigma="0.5" length="5" minGap="2.5" maxSpeed="70" speedDev="0.1" />
    <vehicle id="heavy_2874" depart="0.20">
        <route edges="63[0] 63[1] 4[0] 28 28a 17[1] 11[0] 11[1][1] 67" />
    </vehicle>
    
    <vehicle id="heavy_2875" depart="0.40">
        <route edges="17[0] 17[1] 11[0] 33" />
    </vehicle>
    
    <vehicle id="light_0" depart="1.00">
        <route edges="22[0] 22[1] a1[1] 1[1] 40[0]" />
    </vehicle>
    
    <vehicle id="medium_959" depart="1.00">
        <route edges="63[0] 63[1] 4[0] 4[1][1][0] 4[1][1][1]" />
    </vehicle>
    
    <vehicle id="heavy_2876" depart="1.20">
        <route edges="41 42 38[0] 38[0]a 38[1][0] 38[1][1] 38[1][1]a 56[1][0] 56[1][1] 64" />
    </vehicle>
    
    <vehicle id="heavy_2877" depart="1.20">
        <route edges="26 26.-170 17[0] 17[1] 11[0] 33" />
    </vehicle>
    
    <vehicle id="light_1" depart="2.00">
        <route edges="18 20+19a a1[1] 1[1] 38[0] 38[0]a 37 34[1][1]" />
    </vehicle>
    
    <vehicle id="heavy_2878" depart="2.40">
        <route edges="81 40[0] 40[1]" />
    </vehicle>
    
    <vehicle id="medium_960" depart="2.50">
        <route edges="52 51 56[0] 39[0] 39[1][0] 39[1][1][0] 37 26 26.-170 15 13[1] 4[0] 28" />
    </vehicle>
    
    <vehicle id="medium_961" depart="4.00">
        <route edges="22[0] 22[1] 25 23 17[0] 17[1] 11[0] 11[1][1] 70" />
    </vehicle>
    
    <vehicle id="heavy_2879" depart="4.20">
        <route edges="98 34[1][0] 26" />
    </vehicle>
    
    <vehicle id="heavy_2880" depart="4.40">
        <route edges="12 56[0] 56[1][0] 34[0] 34[1][0] 34[1][1]" />
    </vehicle>
    
    <vehicle id="light_2" depart="6.00">
        <route edges="52 51 50[0] 97 38[1][1]a" />
    </vehicle>
    
    <vehicle id="medium_962" depart="6.00">
        <route edges="28a 17[1] 11[0] 11[1][1] 101 34[0] 34[1][0] 36 38[1][0] 38[1][1] 38[1][1]a 56[1][0]" />
    </vehicle>
    
    <vehicle id="heavy_2881" depart="6.20">
        <route edges="65 5[1][0]+66 5[1][1][1] 16[0] 16[1] 18 20+19a a1[1] 1[1]" />
    </vehicle>
    
    <vehicle id="heavy_2882" depart="6.40">
        <route edges="26 26.-170 17[0] 17[1] 8 10" />
    </vehicle>
    
    <vehicle id="light_3" depart="8.00">
        <route edges="12 56[0] 39[0] 39[1][0] 39[1][1][0] 39[1][1][1] 45 2[0] 2[1][0] 2[1][1][0]" />
    </vehicle>
    
    <vehicle id="medium_963" depart="10.00">
        <route edges="54 48 41 42 38[0] 38[0]a 38[1][0] 38[1][1] 38[1][1]a 56[1][0] 56[1][1] 5[1][0]+66 5[1][1][1] 8 10" />
    </vehicle>
    
    <vehicle id="heavy_2883" depart="10.40">
        <route edges="63[1] 4[0] 28 28a 17[1] 11[0] 11[1][1] 64" />
    </vehicle>
    
    <vehicle id="heavy_2884" depart="11.00">
        <route edges="2[0] 2[1][0] 24 23 17[0] 17[1] 11[0] 11[1][1] 64" />
    </vehicle>
    
    <vehicle id="medium_964" depart="11.50">
        <route edges="20+19a a1[1] 1[1] 38[0] 38[0]a 38[1][0] 38[1][1] 38[1][1]a 56[1][0] 56[1][1] 5[1][0]+66 5[1][1][1] 8 3[1] 3[1]b" />
    </vehicle>
    
    <vehicle id="heavy_2885" depart="11.60">
        <route edges="13[0] 14 18 20+19a a1[1] 1[1] 38[0] 38[0]a 46 49[0] 49[1] 55 53 53a" />
    </vehicle>
    
    <vehicle id="light_4" depart="14.00">
        <route edges="13[0] 14 18 20+19a a1[1] 1[1] 38[0] 38[0]a 37 26 26.-170" />
    </vehicle>
    
    <vehicle id="medium_965" depart="14.00">
        <route edges="12 56[0] 39[0] 39[1][0] 39[1][1][0] 39[1][1][1] 45 2[0] 34[1][2]" />
    </vehicle>
    
    <vehicle id="heavy_2886" depart="14.60">
        <route edges="1[0] 25" />
    </vehicle>
    
    <vehicle id="heavy_2887" depart="14.80">
        <route edges="22[0] 22[1] a1[1] 1[1] 40[0] 40[1]" />
    </vehicle>
    
    <vehicle id="heavy_2888" depart="17.60">
        <route edges="13[0] 14 17[0] 17[1] 11[0] 11[1][1] 70" />
    </vehicle>
    
    <vehicle id="heavy_2889" depart="19.20">
        <route edges="49[0] 49[1] 55 56[0] 39[0] 39[1][0] 39[1][1][0] 37 26 26.-170 17[0]" />
    </vehicle>
    
    <vehicle id="heavy_2890" depart="20.00">
        <route edges="43 81 40[0] 40[1]" />
    </vehicle>
    
    <vehicle id="medium_966" depart="21.00">
        <route edges="13[0] 14 18 20+19a a1[1] 1[1] 38[0] 38[0]a 38[1][0] 38[1][1] 39[1][0] 39[1][1][0]" />
    </vehicle>
    
    <vehicle id="heavy_2891" depart="21.20">
        <route edges="22[0] 22[1] 25 23 17[0] 17[1] 11[0] 11[1][1] 70" />
    </vehicle>
    
    <vehicle id="heavy_2892" depart="21.20">
        <route edges="63[0] 63[1] 4[0] 28 28a 17[1] 11[0] 11[1][1] 101 34[0] 34[1][0] 36 46 48 41" />
    </vehicle>
    
    <vehicle id="light_5" depart="22.00">
        <route edges="22[1] a1[1] 1[1] 38[0] 38[0]a 46 49[0] 49[1] 55 53 53a" />
    </vehicle>
    
    <vehicle id="light_6" depart="24.00">
        <route edges="45 2[0] 34[1][2] 36 46 49[0] 49[1] 55 53 53a" />
    </vehicle>
    
    <vehicle id="light_7" depart="26.00">
        <route edges="1[0] 25 23 17[0] 17[1]" />
    </vehicle>
    
    <vehicle id="heavy_2893" depart="26.20">
        <route edges="1[0] 25 23 17[0] 30 31" />
    </vehicle>
    
    <vehicle id="medium_967" depart="26.50">
        <route edges="34[1][0] 26 26.-170 18 20+19b 2[1][1][1]b" />
    </vehicle>
    
    <vehicle id="heavy_2894" depart="27.00">
        <route edges="65 101 34[0] 34[1][0] 36 46 48 40[1]" />
    </vehicle>
    
    <vehicle id="heavy_2895" depart="27.00">
        <route edges="12 56[0] 56[1][0] 56[1][1] 5[1][0]+66 5[1][1][1] 8 10" />
    </vehicle>
    
    <vehicle id="light_8" depart="29.00">
        <route edges="12 53 53a" />
    </vehicle>
    
    <vehicle id="medium_968" depart="29.00">
        <route edges="22[0] 22[1] 25 23 17[0] 17[1] 11[0] 33" />
    </vehicle>
    
    <vehicle id="heavy_2896" depart="29.00">
        <route edges="65 5[1][0]+66 5[1][1][1] 8 10" />
    </vehicle>
    
    <vehicle id="heavy_2897" depart="29.00">
        <route edges="38[0]a 37 26 26.-170 15 14" />
    </vehicle>
    
    <vehicle id="heavy_2898" depart="29.80">
        <route edges="38[1][1] 38[1][1]a 56[1][0] 56[1][1] 5[1][0]+66 5[1][1][1] 8 4[1][1][1]" />
    </vehicle>
    
    <vehicle id="heavy_2899" depart="31.60">
        <route edges="65 101 34[0] 34[1][0] 36 39[1][1][1] 45 44" />
    </vehicle>
    
    <vehicle id="light_9" depart="32.00">
        <route edges="45 2[0] 34[1][2] 36 46 49[0] 49[1] 55 56[0]" />
    </vehicle>
    
    <vehicle id="heavy_2900" depart="32.80">
        <route edges="54 48 41 42 38[0] 38[0]a 38[1][0] 38[1][1] 38[1][1]a 56[1][0] 56[1][1] 5[1][0]+66 5[1][1][1] 8 3[1] 3[1]b" />
    </vehicle>
    
    <vehicle id="medium_969" depart="33.00">
        <route edges="6 100 7 4[1][1][1]" />
    </vehicle>
    
    <vehicle id="medium_970" depart="33.00">
        <route edges="43 81 38[0] 38[0]a 46 49[0] 49[1] 55 53 53a" />
    </vehicle>
    
    <vehicle id="heavy_2901" depart="33.00">
        <route edges="34[0] 34[1][0] 26 26.-170 17[0] 17[1] 11[0] 33" />
    </vehicle>
    
    <vehicle id="heavy_2902" depart="33.40">
        <route edges="1[0] a1[1] 1[1] 38[0] 38[0]a 46 49[0] 49[1] 55 53 53a" />
    </vehicle>
    
    <vehicle id="heavy_2903" depart="34.60">
        <route edges="63[0] 63[1] 4[0] 28 28a 17[1] 11[0] 11[1][1]" />
    </vehicle>
    
    <vehicle id="heavy_2904" depart="34.60">
        <route edges="71 101 34[0] 34[1][0] 36 46 49[0] 49[1] 55 53 53a" />
    </vehicle>
    
    <vehicle id="heavy_2905" depart="36.20">
        <route edges="4[0] 28 28a 30 31 5[1][1][1] 16[0]" />
    </vehicle>
    
    <vehicle id="heavy_2906" depart="36.60">
        <route edges="63[0] 63[1] 4[0] 4[1][1][0] 4[1][1][1]" />
    </vehicle>
    
    <vehicle id="heavy_2907" depart="36.80">
        <route edges="13[0] 14 17[0] 30" />
    </vehicle>
    
    <vehicle id="medium_971" depart="37.00">
        <route edges="17[0] 17[1] 11[0] 11[1][1] 70" />
    </vehicle>
    
    <vehicle id="heavy_2908" depart="37.60">
        <route edges="15 14 17[0] 17[1] 11[0] 11[1][1] 64" />
    </vehicle>
    
    <vehicle id="light_10" depart="38.00">
        <route edges="71 101 34[0] 34[1][0] 36 46 48 41 42 38[0]" />
    </vehicle>
    
    <vehicle id="medium_972" depart="38.00">
        <route edges="12 56[0] 39[0] 39[1][0] 39[1][1][0] 46 48 40[1]" />
    </vehicle>
    
    <vehicle id="heavy_2909" depart="38.40">
        <route edges="22[0] 22[1] 25 23 17[0] 17[1] 11[0] 33" />
    </vehicle>
    
    <vehicle id="heavy_2910" depart="38.40">
        <route edges="1[0] 25 23 17[0] 17[1] 11[0] 11[1][1] 70" />
    </vehicle>
    
    <vehicle id="medium_973" depart="38.50">
        <route edges="52 51 56[0] 56[1][0] 56[1][1] 5[1][0]+66 5[1][1][1] 8 4[1][1][1]" />
    </vehicle>
    
    <vehicle id="light_11" depart="39.00">
        <route edges="39[1][0] 39[1][1][0] 39[1][1][1] 45 2[0] 2[1][0] 2[1][1][0] 2[1][1][1] 2[1][1][1]b" />
    </vehicle>
    
    <vehicle id="heavy_2911" depart="39.40">
        <route edges="12 56[0] 56[1][0] 56[1][1] 5[1][0]+66 5[1][1][1] 16[0] 16[1] 18 20+19a a1[1] 1[1]" />
    </vehicle>
    
    <vehicle id="light_12" depart="41.00">
        <route edges="46 49[0] 49[1] 55 56[0] 56[1][0] 56[1][1] 64" />
    </vehicle>
    
    <vehicle id="medium_974" depart="41.00">
        <route edges="56[1][1] 5[1][0]+66 5[1][1][1] 16[0] 16[1] 18 20+19b 2[1][1][1]b" />
    </vehicle>
    
    <vehicle id="heavy_2912" depart="43.40">
        <route edges="22[0] 22[1] 25 23 17[0] 17[1] 11[0] 33" />
    </vehicle>
    
    <vehicle id="medium_975" depart="43.50">
        <route edges="1[0] a1[1] 1[1] 38[0] 38[0]a 38[1][0] 96" />
    </vehicle>
    
    <vehicle id="heavy_2913" depart="43.80">
        <route edges="50[0] 97 39[1][0] 39[1][1][0] 37 26 26.-170 18 20+19a a1[1] 1[1] 40[0]" />
    </vehicle>
    
    <vehicle id="medium_976" depart="46.50">
        <route edges="39[0] 39[1][0] 96 49[1] 55 56[0] 56[1][0] 56[1][1] 70" />
    </vehicle>
    
    <vehicle id="heavy_2914" depart="46.80">
        <route edges="39[1][0] 39[1][1][0] 37 26 26.-170 17[0] 17[1] 8 4[1][1][1]" />
    </vehicle>
    
    <vehicle id="heavy_2915" depart="46.80">
        <route edges="13[0] 14 18 20+19a a1[1] 1[1] 40[0] 40[1]" />
    </vehicle>
    
    <vehicle id="heavy_2916" depart="46.80">
        <route edges="12 56[0] 39[0] 39[1][0] 39[1][1][0] 39[1][1][1] 45 2[0] 2[1][0] 2[1][1][0] 2[1][1][1] 2[1][1][1]b" />
    </vehicle>
    
    <vehicle id="light_13" depart="47.00">
        <route edges="54 48 41 42" />
    </vehicle>
    
    <vehicle id="heavy_2917" depart="48.80">
        <route edges="17[1] 8 3[1] 3[1]b" />
    </vehicle>
    
    <vehicle id="heavy_2918" depart="49.20">
        <route edges="12 56[0] 39[0] 39[1][0] 39[1][1][0] 37 26 26.-170" />
    </vehicle>
    
    <vehicle id="light_14" depart="50.00">
        <route edges="11[1][1] 101 34[0] 34[1][0] 26" />
    </vehicle>
    
    <vehicle id="heavy_2919" depart="50.40">
        <route edges="54 48 41 42 38[0] 38[0]a 38[1][0] 38[1][1] 39[1][0]" />
    </vehicle>
    
    <vehicle id="medium_977" depart="50.50">
        <route edges="22[0] 22[1] 25 23 17[0] 17[1] 8 10" />
    </vehicle>
    
    <vehicle id="heavy_2920" depart="51.20">
        <route edges="1[0] 25 23 17[0] 29[0] 29[1] 4[1][1][0]" />
    </vehicle>
    
    <vehicle id="heavy_2921" depart="52.80">
        <route edges="6 100 7 4[1][1][1]" />
    </vehicle>
    
    <vehicle id="heavy_2922" depart="53.20">
        <route edges="63[0] 63[1] 4[0] 28 28a 16[1] 18 20+19a a1[1] 1[1]" />
    </vehicle>
    
    <vehicle id="heavy_2923" depart="53.80">
        <route edges="52 51 56[0] 56[1][0] 56[1][1] 5[1][0]+66 33" />
    </vehicle>
    
    <vehicle id="medium_978" depart="56.00">
        <route edges="38[1][1] 38[1][1]a 56[1][0] 56[1][1] 64" />
    </vehicle>
    
    <vehicle id="heavy_2924" depart="56.40">
        <route edges="25 23 15 14 18 20+19a a1[1] 1[1] 38[0]" />
    </vehicle>
    
    <vehicle id="heavy_2925" depart="56.60">
        <route edges="52 51 56[0] 56[1][0] 56[1][1] 5[1][0]+66 5[1][1][1] 8 4[1][1][1]" />
    </vehicle>
    
    <vehicle id="light_15" depart="57.00">
        <route edges="43 81 38[0] 38[0]a 38[1][0] 38[1][1] 38[1][1]a 56[1][0] 56[1][1] 5[1][0]+66 5[1][1][1] 8 10" />
    </vehicle>
    
    <vehicle id="heavy_2926" depart="57.40">
        <route edges="52 51 56[0]" />
    </vehicle>
    
    <vehicle id="medium_979" depart="57.50">
        <route edges="49[0] 49[1] 55 56[0] 56[1][0] 56[1][1] 5[1][0]+66 5[1][1][1] 8 3[1] 3[1]b" />
    </vehicle>
    
    <vehicle id="medium_980" depart="57.50">
        <route edges="52 51 56[0] 56[1][0] 34[0] 34[1][0] 34[1][1]" />
    </vehicle>
    
    <vehicle id="medium_981" depart="60.50">
        <route edges="52 51 56[0] 56[1][0] 56[1][1] 5[1][0]+66 5[1][1][1] 16[0] 16[1] 18 20+19b" />
    </vehicle>
    
    <vehicle id="heavy_2927" depart="60.60">
        <route edges="12 56[0] 39[0] 39[1][0] 39[1][1][0] 37 26 26.-170 15 13[1] 4[0] 28 28a" />
    </vehicle>
    
    <vehicle id="heavy_2928" depart="60.60">
        <route edges="14 18 20+19a a1[1] 1[1] 38[0] 38[0]a 46 48 41 42" />
    </vehicle>
    
    <vehicle id="medium_982" depart="64.50">
        <route edges="24 23 17[0] 17[1] 11[0] 11[1][1] 64" />
    </vehicle>
    
    <vehicle id="medium_983" depart="66.00">
        <route edges="71 101 34[0] 34[1][0] 34[1][1]" />
    </vehicle>
    
    <vehicle id="medium_984" depart="68.00">
        <route edges="63[0] 63[1] 4[0] 28 28a 30 31" />
    </vehicle>
    
    <vehicle id="heavy_2929" depart="68.40">
        <route edges="52 51 56[0] 56[1][0] 56[1][1] 5[1][0]+66 5[1][1][1] 8 3[1] 3[1]b" />
    </vehicle>
    
    <vehicle id="heavy_2930" depart="69.00">
        <route edges="1[0] 25 23 17[0] 17[1] 11[0] 11[1][1] 64" />
    </vehicle>
    
    <vehicle id="light_16" depart="70.00">
        <route edges="1[0] 25 23 17[0] 17[1] 8 3[1] 3[1]b" />
    </vehicle>
    
    <vehicle id="medium_985" depart="70.50">
        <route edges="71 5[1][0]+66 5[1][1][1] 16[0] 16[1] 18 20+19a 21" />
    </vehicle>
    
    <vehicle id="heavy_2931" depart="70.60">
        <route edges="23 17[0] 17[1] 11[0] 11[1][1] 101 34[0] 34[1][0] 36 46 49[0] 49[1] 55 53 53a" />
    </vehicle>
    
    <vehicle id="heavy_2932" depart="70.80">
        <route edges="54 48 41 42 38[0] 38[0]a 38[1][0] 38[1][1] 38[1][1]a 56[1][0] 56[1][1] 70" />
    </vehicle>
    
    <vehicle id="heavy_2933" depart="72.00">
        <route edges="71 5[1][0]+66 5[1][1][1] 8 4[1][1][1]" />
    </vehicle>
    
    <vehicle id="heavy_2934" depart="76.20">
        <route edges="51 56[0] 39[0] 39[1][0] 39[1][1][0] 39[1][1][1] 45 44" />
    </vehicle>
    
    <vehicle id="heavy_2935" depart="76.40">
        <route edges="43 81 38[0] 38[0]a 38[1][0] 38[1][1] 38[1][1]a 56[1][0] 56[1][1] 64" />
    </vehicle>
    
    <vehicle id="medium_986" depart="76.50">
        <route edges="13[0] 14 18 20+19a a1[1] 1[1] 38[0] 38[0]a 38[1][0] 38[1][1] 39[1][0]" />
    </vehicle>
    
    <vehicle id="medium_987" depart="77.00">
        <route edges="28 28a 16[1] 18 20+19a a1[1] 1[1]" />
    </vehicle>
    
    <vehicle id="medium_988" depart="77.00">
        <route edges="31 11[1][1] 101 34[0] 34[1][0] 36 46 49[0] 49[1] 55 53 53a" />
    </vehicle>
    
    <vehicle id="light_17" depart="79.00">
        <route edges="38[1][1] 39[1][0] 39[1][1][0] 39[1][1][1] 45 2[0] 2[1][0]" />
    </vehicle>
    
    <vehicle id="light_18" depart="79.00">
        <route edges="a1[1] 1[1] 38[0]" />
    </vehicle>
    
    <vehicle id="medium_989" depart="79.00">
        <route edges="3[0] 3[1]" />
    </vehicle>
    
    <vehicle id="medium_990" depart="79.00">
        <route edges="54 48 41 42 44" />
    </vehicle>
    
    <vehicle id="heavy_2936" depart="79.40">
        <route edges="22[0] 22[1] 25 23 17[0] 17[1] 8 10" />
    </vehicle>
    
    <vehicle id="heavy_2937" depart="79.40">
        <route edges="52 51 56[0] 56[1][0] 56[1][1] 5[1][0]+66 5[1][1][1] 8 4[1][1][1]" />
    </vehicle>
    
    <vehicle id="heavy_2938" depart="79.80">
        <route edges="39[1][0] 39[1][1][0]" />
    </vehicle>
    
    <vehicle id="heavy_2939" depart="80.60">
        <route edges="1[0] 21" />
    </vehicle>
    
    <vehicle id="heavy_2940" depart="81.80">
        <route edges="14 18 20+19a a1[1] 1[1] 40[0] 40[1]" />
    </vehicle>
    
    <vehicle id="heavy_2941" depart="81.80">
        <route edges="63[0] 63[1] 4[0] 28 28a 17[1] 11[0] 33" />
    </vehicle>
    
    <vehicle id="light_19" depart="83.00">
        <route edges="39[1][0] 39[1][1][0] 37 34[1][1]" />
    </vehicle>
    
    <vehicle id="medium_991" depart="83.00">
        <route edges="1[1] 38[0] 38[0]a 38[1][0] 38[1][1] 38[1][1]a 56[1][0] 56[1][1] 64" />
    </vehicle>
    
    <vehicle id="heavy_2942" depart="83.20">
        <route edges="65 5[1][0]+66 5[1][1][1] 16[0] 16[1] 18 20+19a 21" />
    </vehicle>
    
    <vehicle id="medium_992" depart="84.00">
        <route edges="17[0] 17[1] 8 4[1][1][1]" />
    </vehicle>
    
    <vehicle id="heavy_2943" depart="84.60">
        <route edges="11[0] 11[1][1] 101 34[0] 34[1][0] 36 46" />
    </vehicle>
    
    <vehicle id="light_20" depart="86.00">
        <route edges="18 20+19a a1[1] 1[1] 38[0] 38[0]a 37 34[1][1]" />
    </vehicle>
    
    <vehicle id="heavy_2944" depart="86.20">
        <route edges="15 14 17[0] 17[1] 11[0] 11[1][1] 64" />
    </vehicle>
    
    <vehicle id="medium_993" depart="86.50">
        <route edges="71 101 34[0] 34[1][0] 34[1][1]" />
    </vehicle>
    
    <vehicle id="medium_994" depart="87.50">
        <route edges="12 56[0] 39[0] 39[1][0] 39[1][1][0] 39[1][1][1] 45 2[0] 2[1][0] 2[1][1][0] 2[1][1][1] 2[1][1][1]b" />
    </vehicle>
    
    <vehicle id="heavy_2945" depart="87.60">
        <route edges="54 48 41 42 38[0] 38[0]a 38[1][0] 38[1][1] 38[1][1]a 56[1][0] 56[1][1] 70" />
    </vehicle>
    
    <vehicle id="heavy_2946" depart="89.00">
        <route edges="13[1] 4[0] 28 28a 16[1] 18 20+19a 21" />
    </vehicle>
    
    <vehicle id="heavy_2947" depart="90.80">
        <route edges="63[0] 63[1] 4[0] 28 28a 17[1] 11[0] 11[1][1] 64" />
    </vehicle>
    
    <vehicle id="medium_995" depart="93.00">
        <route edges="63[0] 63[1] 4[0] 28 28a 16[1] 18 20+19a 21" />
    </vehicle>
    
    <vehicle id="heavy_2948" depart="93.60">
        <route edges="65 5[1][0]+66 5[1][1][1] 8 4[1][1][1]" />
    </vehicle>
    
    <vehicle id="medium_996" depart="94.00">
        <route edges="43 81 40[0] 40[1]" />
    </vehicle>
    
    <vehicle id="heavy_2949" depart="94.40">
        <route edges="71 101 34[0] 34[1][0] 36 39[1][1][1] 45 44" />
    </vehicle>
    
    <vehicle id="heavy_2950" depart="98.20">
        <route edges="63[0] 63[1] 4[0] 28 28a 17[1] 11[0] 11[1][1] 101 34[0] 34[1][0]" />
    </vehicle>
    
    <vehicle id="heavy_2951" depart="99.60">
        <route edges="1[1] 38[0] 38[0]a 46 49[0] 49[1] 55 56[0] 39[0]" />
    </vehicle>
    
    <vehicle id="light_21" depart="101.00">
        <route edges="12 56[0] 39[0] 39[1][0] 39[1][1][0] 37 26 26.-170 15" />
    </vehicle>
    
    <vehicle id="medium_997" depart="101.00">
        <route edges="13[0] 13[1] 4[0] 28 28a 16[1]" />
    </vehicle>
    
    <vehicle id="heavy_2952" depart="101.20">
        <route edges="101 34[0] 34[1][0] 26 26.-170 17[0] 17[1] 8 3[1] 3[1]b" />
    </vehicle>
    
    <vehicle id="light_22" depart="102.00">
        <route edges="22[0] 22[1] 25 23 17[0] 17[1]" />
    </vehicle>
    
    <vehicle id="heavy_2953" depart="102.60">
        <route edges="6 100 7 4[1][1][1]" />
    </vehicle>
    
    <vehicle id="heavy_2954" depart="102.60">
        <route edges="22[0] 22[1] 25 23 17[0] 17[1] 11[0] 11[1][1] 70" />
    </vehicle>
    
    <vehicle id="light_23" depart="105.00">
        <route edges="63[0] 63[1] 4[0] 4[1][1][0] 10" />
    </vehicle>
    
    <vehicle id="medium_998" depart="105.00">
        <route edges="12 53 53a" />
    </vehicle>
    
    <vehicle id="heavy_2955" depart="105.20">
        <route edges="50[0] 97 38[1][1]a 56[1][0] 56[1][1] 5[1][0]+66 5[1][1][1] 8 10" />
    </vehicle>
    
    <vehicle id="heavy_2956" depart="105.20">
        <route edges="12 56[0] 56[1][0] 56[1][1] 5[1][0]+66 5[1][1][1] 8 3[1] 3[1]b" />
    </vehicle>
    
    <vehicle id="medium_999" depart="105.50">
        <route edges="38[0]a 38[1][0] 38[1][1] 38[1][1]a 56[1][0] 56[1][1] 5[1][0]+66 5[1][1][1] 8 4[1][1][1]" />
    </vehicle>
    
    <vehicle id="heavy_2957" depart="106.80">
        <route edges="34[1][2] 36 46 48 41 42" />
    </vehicle>
    
    <vehicle id="medium_1000" depart="107.50">
        <route edges="71 5[1][0]+66 5[1][1][1] 16[0] 16[1] 15 14" />
    </vehicle>
    
    <vehicle id="heavy_2958" depart="107.60">
        <route edges="71 5[1][0]+66 5[1][1][1] 16[0] 16[1] 15 13[1]" />
    </vehicle>
    
    <vehicle id="heavy_2959" depart="107.60">
        <route edges="5[1][1][1] 16[0] 16[1] 18 20+19a a1[1] 1[1] 40[0] 40[1]" />
    </vehicle>
    
    <vehicle id="light_24" depart="108.00">
        <route edges="65 101 34[0] 34[1][0] 36 38[1][0] 38[1][1]" />
    </vehicle>
    
    <vehicle id="medium_1001" depart="109.00">
        <route edges="49[1] 55 56[0] 56[1][0] 56[1][1] 70" />
    </vehicle>
    
    <vehicle id="heavy_2960" depart="109.60">
        <route edges="65 101 34[0] 34[1][0] 36 46 49[0] 49[1] 55 53" />
    </vehicle>
    
    <vehicle id="light_25" depart="110.00">
        <route edges="12 56[0] 56[1][0] 56[1][1] 5[1][0]+66 5[1][1][1] 8 3[1] 3[1]b" />
    </vehicle>
    
    <vehicle id="medium_1002" depart="110.00">
        <route edges="13[0] 14 18 20+19a a1[1]" />
    </vehicle>
    
    <vehicle id="heavy_2961" depart="110.40">
        <route edges="22[0] 22[1] a1[1] 1[1] 40[0] 40[1]" />
    </vehicle>
    
    <vehicle id="light_26" depart="111.00">
        <route edges="49[1] 55 56[0] 39[0] 39[1][0] 39[1][1][0] 39[1][1][1]" />
    </vehicle>
    
    <vehicle id="heavy_2962" depart="111.40">
        <route edges="22[0] 22[1] a1[1] 1[1] 44" />
    </vehicle>
    
    <vehicle id="medium_1003" depart="111.50">
        <route edges="1[0] a1[1] 1[1] 38[0] 38[0]a 38[1][0] 38[1][1] 39[1][0] 39[1][1][0] 39[1][1][1] 45" />
    </vehicle>
    
    <vehicle id="heavy_2963" depart="112.20">
        <route edges="54 48 41 42 38[0] 38[0]a 37 26 26.-170 15 13[1] 4[0] 4[1][1][0]" />
    </vehicle>
    
    <vehicle id="light_27" depart="113.00">
        <route edges="23 15 14 18 20+19a a1[1] 1[1]" />
    </vehicle>
    
    <vehicle id="heavy_2964" depart="115.00">
        <route edges="54 48 40[1]" />
    </vehicle>
    
    <vehicle id="medium_1004" depart="115.50">
        <route edges="63[0] 63[1] 4[0] 28 28a 30 31 5[1][1][1] 16[0]" />
    </vehicle>
    
    <vehicle id="heavy_2965" depart="115.80">
        <route edges="50[1]a 48 41 42 44" />
    </vehicle>
    
    <vehicle id="light_28" depart="117.00">
        <route edges="26 26.-170 17[0] 17[1] 11[0] 11[1][1] 64" />
    </vehicle>
    
    <vehicle id="medium_1005" depart="117.00">
        <route edges="63[0] 63[1] 4[0] 28 28a 17[1] 11[0] 11[1][1] 101 34[0] 34[1][0] 36 46 49[0] 49[1] 55 53 53a" />
    </vehicle>
    
    <vehicle id="heavy_2966" depart="117.20">
        <route edges="65 101 34[0] 34[1][0] 36 46 48 40[1]" />
    </vehicle>
    
    <vehicle id="heavy_2967" depart="117.40">
        <route edges="11[0] 5[1][1][1] 8 3[1] 3[1]b" />
    </vehicle>
    
    <vehicle id="light_29" depart="118.00">
        <route edges="39[1][1][1] 45 2[0] 2[1][0] 24 23 17[0] 17[1] 8 10" />
    </vehicle>
    
    <vehicle id="heavy_2968" depart="118.80">
        <route edges="65 101 34[0] 34[1][0] 36 46 48 41" />
    </vehicle>
    
    <vehicle id="medium_1006" depart="120.00">
        <route edges="13[1] 4[0] 28 28a 17[1] 11[0] 11[1][1] 70" />
    </vehicle>
    
    <vehicle id="heavy_2969" depart="120.00">
        <route edges="1[0] 25 23 17[0] 17[1] 8 4[1][1][1]" />
    </vehicle>
    
    <vehicle id="heavy_2970" depart="120.40">
        <route edges="52 51 56[0] 39[0] 39[1][0] 39[1][1][0] 39[1][1][1] 45 2[0] 2[1][0] 2[1][1][0] 2[1][1][1] 2[1][1][1]b" />
    </vehicle>
    
    <vehicle id="heavy_2971" depart="120.60">
        <route edges="52 51 56[0] 39[0] 39[1][0] 39[1][1][0] 46 48 41 42" />
    </vehicle>
    
    <vehicle id="light_30" depart="122.00">
        <route edges="4[0] 28 28a 17[1] 11[0] 11[1][1] 101 34[0] 34[1][0] 36 46 49[0] 49[1] 55 53 53a" />
    </vehicle>
    
    <vehicle id="medium_1007" depart="125.50">
        <route edges="12 56[0] 56[1][0] 56[1][1] 70" />
    </vehicle>
    
    <vehicle id="light_31" depart="127.00">
        <route edges="54 48 41 42 2[0] 2[1][0] 2[1][1][0] 2[1][1][1] 2[1][1][1]b" />
    </vehicle>
    
    <vehicle id="medium_1008" depart="127.00">
        <route edges="39[1][1][0] 37 26 26.-170 17[0] 17[1] 8 4[1][1][1]" />
    </vehicle>
    
    <vehicle id="heavy_2972" depart="127.20">
        <route edges="12 56[0] 56[1][0] 56[1][1] 5[1][0]+66 5[1][1][1] 8 3[1] 3[1]b" />
    </vehicle>
    
    <vehicle id="heavy_2973" depart="127.20">
        <route edges="13[0] 14 17[0] 17[1] 11[0] 11[1][1]" />
    </vehicle>
    
    <vehicle id="heavy_2974" depart="127.40">
        <route edges="52 51 56[0] 39[0] 39[1][0] 39[1][1][0] 39[1][1][1] 45 2[0] 2[1][0] 2[1][1][0] 2[1][1][1] 2[1][1][1]b" />
    </vehicle>
    
    <vehicle id="medium_1009" depart="127.50">
        <route edges="39[1][0] 96 49[1] 55 56[0] 56[1][0] 56[1][1] 5[1][0]+66 33" />
    </vehicle>
    
    <vehicle id="light_32" depart="128.00">
        <route edges="101 34[0] 34[1][0] 34[1][1]" />
    </vehicle>
    
    <vehicle id="light_33" depart="130.00">
        <route edges="22[0] 22[1] a1[1] 1[1] 38[0] 38[0]a 38[1][0] 38[1][1] 38[1][1]a 56[1][0] 56[1][1] 5[1][0]+66" />
    </vehicle>
    
    <vehicle id="medium_1010" depart="130.00">
        <route edges="67 31 5[1][1][1] 16[0] 16[1] 18 20+19b 2[1][1][1]b" />
    </vehicle>
    
    <vehicle id="heavy_2975" depart="130.40">
        <route edges="34[1][2] 26 26.-170 18 20+19a 21" />
    </vehicle>
    
    <vehicle id="light_34" depart="131.00">
        <route edges="14 17[0] 17[1] 11[0] 11[1][1] 70" />
    </vehicle>
    
    <vehicle id="heavy_2976" depart="132.00">
        <route edges="1[0] a1[1] 1[1] 40[0] 40[1]" />
    </vehicle>
    
    <vehicle id="heavy_2977" depart="132.20">
        <route edges="12 56[0] 39[0] 39[1][0] 96" />
    </vehicle>
    
    <vehicle id="heavy_2978" depart="132.40">
        <route edges="71 101 34[0] 34[1][0] 36 39[1][1][1] 45 44" />
    </vehicle>
    
    <vehicle id="heavy_2979" depart="132.60">
        <route edges="63[0] 63[1] 4[0] 28 28a 30 31 5[1][1][1]" />
    </vehicle>
    
    <vehicle id="heavy_2980" depart="133.40">
        <route edges="38[0]a 46 49[0] 49[1]" />
    </vehicle>
    
    <vehicle id="heavy_2981" depart="133.40">
        <route edges="5[1][0]+66 5[1][1][1] 16[0] 16[1] 18 20+19a 21" />
    </vehicle>
    
    <vehicle id="medium_1011" depart="133.50">
        <route edges="52 51 56[0] 39[0] 39[1][0] 39[1][1][0] 39[1][1][1] 45 44" />
    </vehicle>
    
    <vehicle id="heavy_2982" depart="137.80">
        <route edges="12 56[0] 39[0] 39[1][0] 39[1][1][0] 39[1][1][1] 45 2[0] 2[1][0] 2[1][1][0] 2[1][1][1] 2[1][1][1]b" />
    </vehicle>
    
    <vehicle id="medium_1012" depart="138.00">
        <route edges="52 51 56[0] 56[1][0] 56[1][1] 5[1][0]+66 5[1][1][1] 8 3[1] 3[1]b" />
    </vehicle>
    
    <vehicle id="heavy_2983" depart="138.80">
        <route edges="63[0] 63[1] 4[0] 4[1][1][0] 10" />
    </vehicle>
    
    <vehicle id="heavy_2984" depart="141.00">
        <route edges="3[0] 3[1] 3[1]b" />
    </vehicle>
    
    <vehicle id="heavy_2985" depart="142.80">
        <route edges="71 101 34[0] 34[1][0] 34[1][1] 2[1][0]" />
    </vehicle>
    
    <vehicle id="medium_1013" depart="144.00">
        <route edges="65 5[1][0]+66 5[1][1][1] 8 3[1] 3[1]b" />
    </vehicle>
    
    <vehicle id="heavy_2986" depart="144.20">
        <route edges="54 48 41 42 2[0] 34[1][2]" />
    </vehicle>
    
    <vehicle id="heavy_2987" depart="144.40">
        <route edges="22[0] 22[1] a1[1] 1[1] 40[0] 40[1]" />
    </vehicle>
    
    <vehicle id="heavy_2988" depart="146.80">
        <route edges="63[0] 63[1] 4[0] 28 28a 17[1] 11[0] 11[1][1] 101 34[0] 34[1][0]" />
    </vehicle>
    
    <vehicle id="light_35" depart="147.00">
        <route edges="50[1]a 48 41 42 2[0] 2[1][0] 2[1][1][0] 21" />
    </vehicle>
    
    <vehicle id="heavy_2989" depart="147.20">
        <route edges="26.-170 18 20+19a a1[1] 1[1] 40[0] 40[1]" />
    </vehicle>
    
    <vehicle id="heavy_2990" depart="147.40">
        <route edges="71 5[1][0]+66 5[1][1][1] 16[0] 16[1]" />
    </vehicle>
    
    <vehicle id="medium_1014" depart="147.50">
        <route edges="13[0] 14 17[0] 17[1] 11[0] 11[1][1] 101 34[0]" />
    </vehicle>
    
    <vehicle id="heavy_2991" depart="150.20">
        <route edges="43 81 38[0] 38[0]a 38[1][0] 38[1][1] 38[1][1]a 56[1][0] 56[1][1] 5[1][0]+66 33" />
    </vehicle>
    
    <vehicle id="medium_1015" depart="151.50">
        <route edges="39[0] 39[1][0] 39[1][1][0] 39[1][1][1] 45 44" />
    </vehicle>
    
    <vehicle id="heavy_2992" depart="151.60">
        <route edges="63[0] 63[1] 4[0] 28 28a 16[1] 18 20+19a a1[1] 1[1] 44" />
    </vehicle>
    
    <vehicle id="heavy_2993" depart="151.80">
        <route edges="54 48 41 42 2[0] 2[1][0] 2[1][1][0] 2[1][1][1] 2[1][1][1]b" />
    </vehicle>
    
    <vehicle id="medium_1016" depart="152.50">
        <route edges="98 34[1][0] 36 46 48 40[1]" />
    </vehicle>
    
    <vehicle id="heavy_2994" depart="152.60">
        <route edges="22[0] 22[1] a1[1] 1[1] 38[0] 38[0]a 46 49[0] 49[1] 55 53 53a" />
    </vehicle>
    
    <vehicle id="heavy_2995" depart="153.00">