<?xml version="1.0" encoding="UTF-8"?>

<!-- generated on 2025-04-27 19:37:26 by Eclipse SUMO netgenerate Version 1.22.0
<netgenerateConfiguration xmlns:xsi="http://www.w3.org/2001/XMLSchema-instance" xsi:noNamespaceSchemaLocation="http://sumo.dlr.de/xsd/netgenerateConfiguration.xsd">

    <spider_network>
        <spider value="true"/>
        <spider.arm-number value="6"/>
        <spider.circle-number value="3"/>
        <spider.space-radius value="100"/>
    </spider_network>

    <output>
        <output-file value="curriculum_scenarios\spider_6arms_2lane\spider_6arms_2lane_base.net.xml"/>
    </output>

    <building_defaults>
        <default.lanenumber value="2"/>
    </building_defaults>

</netgenerateConfiguration>
-->

<net version="1.20" junctionCornerDetail="5" limitTurnSpeed="5.50" xmlns:xsi="http://www.w3.org/2001/XMLSchema-instance" xsi:noNamespaceSchemaLocation="http://sumo.dlr.de/xsd/net_file.xsd">

    <location netOffset="300.00,259.81" convBoundary="0.00,0.00,600.00,519.62" origBoundary="-300.00,-259.81,300.00,259.81" projParameter="!"/>

    <edge id=":A1_0" function="internal">
        <lane id=":A1_0_0" index="0" speed="5.67" length="9.24" shape="303.39,275.27 301.69,273.07 300.00,272.34 298.31,273.07 296.61,275.27"/>
    </edge>
    <edge id=":A1_1" function="internal">
        <lane id=":A1_1_0" index="0" speed="12.70" length="22.40" shape="303.39,275.27 299.92,270.61 295.69,267.27 290.69,265.27 284.91,264.61"/>
    </edge>
    <edge id=":A1_2" function="internal">
        <lane id=":A1_2_0" index="0" speed="13.89" length="30.17" shape="303.39,275.27 288.30,249.14"/>
        <lane id=":A1_2_1" index="1" speed="13.89" length="30.17" shape="306.16,273.67 291.07,247.54"/>
    </edge>
    <edge id=":A1_4" function="internal">
        <lane id=":A1_4_0" index="0" speed="13.89" length="29.12" shape="306.16,273.67 303.16,266.74 302.15,259.81 303.16,252.88 306.16,245.94"/>
    </edge>
    <edge id=":A1_5" function="internal">
        <lane id=":A1_5_0" index="0" speed="8.04" length="20.06" shape="306.16,273.67 305.46,269.08 307.27,264.01 310.76,259.90 315.09,258.21"/>
    </edge>
    <edge id=":A1_6" function="internal">
        <lane id=":A1_6_0" index="0" speed="3.65" length="4.67" shape="306.16,273.67 306.25,272.23 306.74,271.49 307.64,271.43 308.93,272.07"/>
    </edge>
    <edge id=":A1_7" function="internal">
        <lane id=":A1_7_0" index="0" speed="5.67" length="9.24" shape="315.09,264.61 312.33,264.97 310.85,266.07 310.64,267.91 311.70,270.47"/>
    </edge>
    <edge id=":A1_8" function="internal">
        <lane id=":A1_8_0" index="0" speed="12.70" length="22.40" shape="315.09,264.61 309.31,265.27 304.31,267.27 300.08,270.61 296.61,275.27"/>
    </edge>
    <edge id=":A1_9" function="internal">
        <lane id=":A1_9_0" index="0" speed="13.89" length="30.17" shape="315.09,264.61 284.91,264.61"/>
        <lane id=":A1_9_1" index="1" speed="13.89" length="30.17" shape="315.09,261.41 284.91,261.41"/>
    </edge>
    <edge id=":A1_11" function="internal">
        <lane id=":A1_11_0" index="0" speed="13.89" length="29.12" shape="315.09,261.41 307.58,260.54 301.08,257.94 295.57,253.61 291.07,247.54"/>
    </edge>
    <edge id=":A1_12" function="internal">
        <lane id=":A1_12_0" index="0" speed="8.04" length="20.06" shape="315.09,261.41 310.76,259.72 307.27,255.61 305.46,250.53 306.16,245.94"/>
    </edge>
    <edge id=":A1_13" function="internal">
        <lane id=":A1_13_0" index="0" speed="3.65" length="4.67" shape="315.09,261.41 313.89,260.61 313.49,259.81 313.89,259.01 315.09,258.21"/>
    </edge>
    <edge id=":A1_14" function="internal">
        <lane id=":A1_14_0" index="0" speed="5.67" length="9.24" shape="311.70,249.14 310.64,251.71 310.85,253.54 312.33,254.64 315.09,255.01"/>
    </edge>
    <edge id=":A1_15" function="internal">
        <lane id=":A1_15_0" index="0" speed="12.70" length="22.40" shape="311.70,249.14 309.39,254.48 308.62,259.81 309.39,265.14 311.70,270.47"/>
    </edge>
    <edge id=":A1_16" function="internal">
        <lane id=":A1_16_0" index="0" speed="13.89" length="30.17" shape="311.70,249.14 296.61,275.27"/>
        <lane id=":A1_16_1" index="1" speed="13.89" length="30.17" shape="308.93,247.54 293.84,273.67"/>
    </edge>
    <edge id=":A1_18" function="internal">
        <lane id=":A1_18_0" index="0" speed="13.89" length="29.12" shape="308.93,247.54 304.43,253.61 298.92,257.94 292.42,260.54 284.91,261.41"/>
    </edge>
    <edge id=":A1_19" function="internal">
        <lane id=":A1_19_0" index="0" speed="8.04" length="20.06" shape="308.93,247.54 305.30,250.44 300.00,251.41 294.70,250.44 291.07,247.54"/>
    </edge>
    <edge id=":A1_20" function="internal">
        <lane id=":A1_20_0" index="0" speed="3.65" length="4.67" shape="308.93,247.54 307.64,248.18 306.74,248.13 306.25,247.38 306.16,245.94"/>
    </edge>
    <edge id=":A1_21" function="internal">
        <lane id=":A1_21_0" index="0" speed="5.67" length="9.24" shape="296.61,244.34 298.31,246.54 300.00,247.28 301.69,246.54 303.39,244.34"/>
    </edge>
    <edge id=":A1_22" function="internal">
        <lane id=":A1_22_0" index="0" speed="12.70" length="22.40" shape="296.61,244.34 300.08,249.01 304.31,252.34 309.31,254.34 315.09,255.01"/>
    </edge>
    <edge id=":A1_23" function="internal">
        <lane id=":A1_23_0" index="0" speed="13.89" length="30.17" shape="296.61,244.34 311.70,270.47"/>
        <lane id=":A1_23_1" index="1" speed="13.89" length="30.17" shape="293.84,245.94 308.93,272.07"/>
    </edge>
    <edge id=":A1_25" function="internal">
        <lane id=":A1_25_0" index="0" speed="13.89" length="29.12" shape="293.84,245.94 296.84,252.88 297.85,259.81 296.84,266.74 293.84,273.67"/>
    </edge>
    <edge id=":A1_26" function="internal">
        <lane id=":A1_26_0" index="0" speed="8.04" length="20.06" shape="293.84,245.94 294.54,250.53 292.73,255.61 289.24,259.72 284.91,261.41"/>
    </edge>
    <edge id=":A1_27" function="internal">
        <lane id=":A1_27_0" index="0" speed="3.65" length="4.67" shape="293.84,245.94 293.75,247.38 293.26,248.13 292.36,248.18 291.07,247.54"/>
    </edge>
    <edge id=":A1_28" function="internal">
        <lane id=":A1_28_0" index="0" speed="5.67" length="9.24" shape="284.91,255.01 287.67,254.64 289.15,253.54 289.36,251.71 288.30,249.14"/>
    </edge>
    <edge id=":A1_29" function="internal">
        <lane id=":A1_29_0" index="0" speed="12.70" length="22.40" shape="284.91,255.01 290.69,254.34 295.69,252.34 299.92,249.01 303.39,244.34"/>
    </edge>
    <edge id=":A1_30" function="internal">
        <lane id=":A1_30_0" index="0" speed="13.89" length="30.17" shape="284.91,255.01 315.09,255.01"/>
        <lane id=":A1_30_1" index="1" speed="13.89" length="30.17" shape="284.91,258.21 315.09,258.21"/>
    </edge>
    <edge id=":A1_32" function="internal">
        <lane id=":A1_32_0" index="0" speed="13.89" length="29.12" shape="284.91,258.21 292.42,259.07 298.92,261.67 304.43,266.01 308.93,272.07"/>
    </edge>
    <edge id=":A1_33" function="internal">
        <lane id=":A1_33_0" index="0" speed="8.04" length="20.06" shape="284.91,258.21 289.24,259.90 292.73,264.01 294.54,269.08 293.84,273.67"/>
    </edge>
    <edge id=":A1_34" function="internal">
        <lane id=":A1_34_0" index="0" speed="3.65" length="4.67" shape="284.91,258.21 286.11,259.01 286.51,259.81 286.11,260.61 284.91,261.41"/>
    </edge>
    <edge id=":A1_35" function="internal">
        <lane id=":A1_35_0" index="0" speed="5.67" length="9.24" shape="288.30,270.47 289.36,267.91 289.15,266.07 287.67,264.97 284.91,264.61"/>
    </edge>
    <edge id=":A1_36" function="internal">
        <lane id=":A1_36_0" index="0" speed="12.70" length="22.40" shape="288.30,270.47 290.61,265.14 291.38,259.81 290.61,254.48 288.30,249.14"/>
    </edge>
    <edge id=":A1_37" function="internal">
        <lane id=":A1_37_0" index="0" speed="13.89" length="30.17" shape="288.30,270.47 303.39,244.34"/>
        <lane id=":A1_37_1" index="1" speed="13.89" length="30.17" shape="291.07,272.07 306.16,245.94"/>
    </edge>
    <edge id=":A1_39" function="internal">
        <lane id=":A1_39_0" index="0" speed="13.89" length="29.12" shape="291.07,272.07 295.57,266.01 301.08,261.67 307.58,259.07 315.09,258.21"/>
    </edge>
    <edge id=":A1_40" function="internal">
        <lane id=":A1_40_0" index="0" speed="8.04" length="20.06" shape="291.07,272.07 294.70,269.17 300.00,268.21 305.30,269.17 308.93,272.07"/>
    </edge>
    <edge id=":A1_41" function="internal">
        <lane id=":A1_41_0" index="0" speed="3.65" length="4.67" shape="291.07,272.07 292.36,271.43 293.26,271.49 293.75,272.23 293.84,273.67"/>
    </edge>
    <edge id=":B1_0" function="internal">
        <lane id=":B1_0_0" index="0" speed="10.76" length="15.91" shape="407.70,264.61 405.16,265.27 402.46,267.27 399.62,270.61 396.61,275.27"/>
    </edge>
    <edge id=":B1_1" function="internal">
        <lane id=":B1_1_0" index="0" speed="13.89" length="22.78" shape="407.70,264.61 384.91,264.61"/>
        <lane id=":B1_1_1" index="1" speed="13.89" length="22.78" shape="407.70,261.41 384.91,261.41"/>
    </edge>
    <edge id=":B1_3" function="internal">
        <lane id=":B1_3_0" index="0" speed="12.74" length="3.61" shape="407.70,261.41 404.16,260.69"/>
    </edge>
    <edge id=":B1_4" function="internal">
        <lane id=":B1_4_0" index="0" speed="3.65" length="1.44" shape="407.70,261.41 406.50,260.61"/>
    </edge>
    <edge id=":B1_20" function="internal">
        <lane id=":B1_20_0" index="0" speed="12.74" length="18.95" shape="404.16,260.69 403.42,260.54 399.23,257.94 395.11,253.61 391.07,247.54"/>
    </edge>
    <edge id=":B1_21" function="internal">
        <lane id=":B1_21_0" index="0" speed="3.65" length="3.23" shape="406.50,260.61 406.10,259.81 406.50,259.01 407.70,258.21"/>
    </edge>
    <edge id=":B1_5" function="internal">
        <lane id=":B1_5_0" index="0" speed="10.76" length="15.91" shape="396.61,244.34 399.62,249.01 402.46,252.34 405.16,254.34 407.70,255.01"/>
    </edge>
    <edge id=":B1_6" function="internal">
        <lane id=":B1_6_0" index="0" speed="13.89" length="32.48" shape="396.61,244.34 399.96,252.08 401.08,259.81 399.96,267.54 396.61,275.27"/>
        <lane id=":B1_6_1" index="1" speed="13.89" length="29.12" shape="393.84,245.94 396.84,252.88 397.85,259.81 396.84,266.74 393.84,273.67"/>
    </edge>
    <edge id=":B1_8" function="internal">
        <lane id=":B1_8_0" index="0" speed="8.80" length="24.37" shape="393.84,245.94 396.63,252.71 396.08,257.54 392.17,260.44 384.91,261.41"/>
    </edge>
    <edge id=":B1_9" function="internal">
        <lane id=":B1_9_0" index="0" speed="3.65" length="4.67" shape="393.84,245.94 393.75,247.38 393.26,248.13 392.36,248.18 391.07,247.54"/>
    </edge>
    <edge id=":B1_10" function="internal">
        <lane id=":B1_10_0" index="0" speed="5.67" length="9.24" shape="384.91,255.01 387.67,254.64 389.15,253.54 389.36,251.71 388.30,249.14"/>
    </edge>
    <edge id=":B1_11" function="internal">
        <lane id=":B1_11_0" index="0" speed="13.89" length="22.78" shape="384.91,255.01 407.70,255.01"/>
        <lane id=":B1_11_1" index="1" speed="13.89" length="22.78" shape="384.91,258.21 407.70,258.21"/>
    </edge>
    <edge id=":B1_13" function="internal">
        <lane id=":B1_13_0" index="0" speed="8.80" length="5.36" shape="384.91,258.21 390.23,258.92"/>
    </edge>
    <edge id=":B1_14" function="internal">
        <lane id=":B1_14_0" index="0" speed="3.65" length="1.44" shape="384.91,258.21 386.11,259.01"/>
    </edge>
    <edge id=":B1_22" function="internal">
        <lane id=":B1_22_0" index="0" speed="8.80" length="19.01" shape="390.23,258.92 392.17,259.17 396.08,262.07 396.63,266.91 393.84,273.67"/>
    </edge>
    <edge id=":B1_23" function="internal">
        <lane id=":B1_23_0" index="0" speed="3.65" length="3.23" shape="386.11,259.01 386.51,259.81 386.11,260.61 384.91,261.41"/>
    </edge>
    <edge id=":B1_15" function="internal">
        <lane id=":B1_15_0" index="0" speed="5.67" length="9.24" shape="388.30,270.47 389.36,267.91 389.15,266.07 387.67,264.97 384.91,264.61"/>
    </edge>
    <edge id=":B1_16" function="internal">
        <lane id=":B1_16_0" index="0" speed="12.70" length="22.40" shape="388.30,270.47 390.61,265.14 391.38,259.81 390.61,254.48 388.30,249.14"/>
        <lane id=":B1_16_1" index="1" speed="13.59" length="25.76" shape="391.07,272.07 393.73,265.94 394.61,259.81 393.73,253.68 391.07,247.54"/>
    </edge>
    <edge id=":B1_18" function="internal">
        <lane id=":B1_18_0" index="0" speed="12.74" length="22.56" shape="391.07,272.07 395.11,266.01 399.23,261.67 403.42,259.07 407.70,258.21"/>
    </edge>
    <edge id=":B1_19" function="internal">
        <lane id=":B1_19_0" index="0" speed="3.65" length="4.67" shape="391.07,272.07 392.36,271.43 393.26,271.49 393.75,272.23 393.84,273.67"/>
    </edge>
    <edge id=":B2_0" function="internal">
        <lane id=":B2_0_0" index="0" speed="10.76" length="15.91" shape="349.69,355.47 347.84,353.61 344.77,352.28 340.46,351.48 334.91,351.21"/>
    </edge>
    <edge id=":B2_1" function="internal">
        <lane id=":B2_1_0" index="0" speed="13.89" length="22.78" shape="349.69,355.47 338.30,335.75"/>
        <lane id=":B2_1_1" index="1" speed="13.89" length="22.78" shape="352.46,353.87 341.07,334.15"/>
    </edge>
    <edge id=":B2_3" function="internal">
        <lane id=":B2_3_0" index="0" speed="12.74" length="3.61" shape="352.46,353.87 351.31,350.45"/>
    </edge>
    <edge id=":B2_4" function="internal">
        <lane id=":B2_4_0" index="0" speed="3.65" length="1.44" shape="352.46,353.87 352.55,352.44"/>
    </edge>
    <edge id=":B2_20" function="internal">
        <lane id=":B2_20_0" index="0" speed="12.74" length="18.95" shape="351.31,350.45 351.08,349.74 351.23,344.81 352.92,339.08 356.16,332.55"/>
    </edge>
    <edge id=":B2_21" function="internal">
        <lane id=":B2_21_0" index="0" speed="3.65" length="3.23" shape="352.55,352.44 353.05,351.69 353.94,351.64 355.23,352.27"/>
    </edge>
    <edge id=":B2_5" function="internal">
        <lane id=":B2_5_0" index="0" speed="10.76" length="15.91" shape="361.70,335.75 359.16,340.68 357.70,344.81 357.31,348.14 358.00,350.67"/>
    </edge>
    <edge id=":B2_6" function="internal">
        <lane id=":B2_6_0" index="0" speed="13.89" length="32.48" shape="361.70,335.75 356.68,342.51 350.54,347.34 343.29,350.24 334.91,351.21"/>
        <lane id=":B2_6_1" index="1" speed="13.89" length="29.12" shape="358.93,334.15 354.43,340.21 348.92,344.54 342.42,347.14 334.91,348.01"/>
    </edge>
    <edge id=":B2_8" function="internal">
        <lane id=":B2_8_0" index="0" speed="8.80" length="24.37" shape="358.93,334.15 354.46,339.95 350.00,341.88 345.54,339.95 341.07,334.15"/>
    </edge>
    <edge id=":B2_9" function="internal">
        <lane id=":B2_9_0" index="0" speed="3.65" length="4.67" shape="358.93,334.15 357.64,334.79 356.74,334.73 356.25,333.99 356.16,332.55"/>
    </edge>
    <edge id=":B2_10" function="internal">
        <lane id=":B2_10_0" index="0" speed="5.67" length="9.24" shape="346.61,330.95 348.31,333.15 350.00,333.88 351.69,333.15 353.39,330.95"/>
    </edge>
    <edge id=":B2_11" function="internal">
        <lane id=":B2_11_0" index="0" speed="13.89" length="22.78" shape="346.61,330.95 358.00,350.67"/>
        <lane id=":B2_11_1" index="1" speed="13.89" length="22.78" shape="343.84,332.55 355.23,352.27"/>
    </edge>
    <edge id=":B2_13" function="internal">
        <lane id=":B2_13_0" index="0" speed="8.80" length="5.36" shape="343.84,332.55 345.89,337.50"/>
    </edge>
    <edge id=":B2_14" function="internal">
        <lane id=":B2_14_0" index="0" speed="3.65" length="1.44" shape="343.84,332.55 343.75,333.99"/>
    </edge>
    <edge id=":B2_22" function="internal">
        <lane id=":B2_22_0" index="0" speed="8.80" length="19.01" shape="345.89,337.50 346.63,339.31 346.08,344.14 342.17,347.04 334.91,348.01"/>
    </edge>
    <edge id=":B2_23" function="internal">
        <lane id=":B2_23_0" index="0" speed="3.65" length="3.23" shape="343.75,333.99 343.26,334.73 342.36,334.79 341.07,334.15"/>
    </edge>
    <edge id=":B2_15" function="internal">
        <lane id=":B2_15_0" index="0" speed="5.67" length="9.24" shape="334.91,341.61 337.67,341.24 339.15,340.14 339.36,338.31 338.30,335.75"/>
    </edge>
    <edge id=":B2_16" function="internal">
        <lane id=":B2_16_0" index="0" speed="12.70" length="22.40" shape="334.91,341.61 340.69,340.94 345.69,338.94 349.92,335.61 353.39,330.95"/>
        <lane id=":B2_16_1" index="1" speed="13.59" length="25.76" shape="334.91,344.81 341.55,344.04 347.31,341.74 352.17,337.91 356.16,332.55"/>
    </edge>
    <edge id=":B2_18" function="internal">
        <lane id=":B2_18_0" index="0" speed="12.74" length="22.56" shape="334.91,344.81 342.19,345.28 348.00,346.68 352.35,349.01 355.23,352.27"/>
    </edge>
    <edge id=":B2_19" function="internal">
        <lane id=":B2_19_0" index="0" speed="3.65" length="4.67" shape="334.91,344.81 336.11,345.61 336.51,346.41 336.11,347.21 334.91,348.01"/>
    </edge>
    <edge id=":B3_0" function="internal">
        <lane id=":B3_0_0" index="0" speed="10.76" length="15.91" shape="265.09,351.21 259.54,351.48 255.23,352.28 252.16,353.61 250.31,355.47"/>
    </edge>
    <edge id=":B3_1" function="internal">
        <lane id=":B3_1_0" index="0" speed="13.89" length="32.48" shape="265.09,351.21 256.71,350.24 249.46,347.34 243.32,342.51 238.30,335.75"/>
        <lane id=":B3_1_1" index="1" speed="13.89" length="29.12" shape="265.09,348.01 257.58,347.14 251.08,344.54 245.57,340.21 241.07,334.15"/>
    </edge>
    <edge id=":B3_3" function="internal">
        <lane id=":B3_3_0" index="0" speed="8.80" length="24.37" shape="265.09,348.01 257.83,347.04 253.92,344.14 253.37,339.31 256.16,332.55"/>
    </edge>
    <edge id=":B3_4" function="internal">
        <lane id=":B3_4_0" index="0" speed="3.65" length="4.67" shape="265.09,348.01 263.89,347.21 263.49,346.41 263.89,345.61 265.09,344.81"/>
    </edge>
    <edge id=":B3_5" function="internal">
        <lane id=":B3_5_0" index="0" speed="5.67" length="9.24" shape="261.70,335.75 260.64,338.31 260.85,340.14 262.33,341.24 265.09,341.61"/>
    </edge>
    <edge id=":B3_6" function="internal">
        <lane id=":B3_6_0" index="0" speed="13.89" length="22.78" shape="261.70,335.75 250.31,355.47"/>
        <lane id=":B3_6_1" index="1" speed="13.89" length="22.78" shape="258.93,334.15 247.54,353.87"/>
    </edge>
    <edge id=":B3_8" function="internal">
        <lane id=":B3_8_0" index="0" speed="8.80" length="5.36" shape="258.93,334.15 255.66,338.39"/>
    </edge>
    <edge id=":B3_9" function="internal">
        <lane id=":B3_9_0" index="0" speed="3.65" length="1.44" shape="258.93,334.15 257.64,334.79"/>
    </edge>
    <edge id=":B3_20" function="internal">
        <lane id=":B3_20_0" index="0" speed="8.80" length="19.01" shape="255.66,338.39 254.46,339.95 250.00,341.88 245.54,339.95 241.07,334.15"/>
    </edge>
    <edge id=":B3_21" function="internal">
        <lane id=":B3_21_0" index="0" speed="3.65" length="3.23" shape="257.64,334.79 256.74,334.73 256.25,333.99 256.16,332.55"/>
    </edge>
    <edge id=":B3_10" function="internal">
        <lane id=":B3_10_0" index="0" speed="5.67" length="9.24" shape="246.61,330.95 248.31,333.15 250.00,333.88 251.69,333.15 253.39,330.95"/>
    </edge>
    <edge id=":B3_11" function="internal">
        <lane id=":B3_11_0" index="0" speed="12.70" length="22.40" shape="246.61,330.95 250.08,335.61 254.31,338.94 259.31,340.94 265.09,341.61"/>
        <lane id=":B3_11_1" index="1" speed="13.59" length="25.76" shape="243.84,332.55 247.83,337.91 252.69,341.74 258.45,344.04 265.09,344.81"/>
    </edge>
    <edge id=":B3_13" function="internal">
        <lane id=":B3_13_0" index="0" speed="12.74" length="22.56" shape="243.84,332.55 247.08,339.08 248.77,344.81 248.92,349.74 247.54,353.87"/>
    </edge>
    <edge id=":B3_14" function="internal">
        <lane id=":B3_14_0" index="0" speed="3.65" length="4.67" shape="243.84,332.55 243.75,333.99 243.26,334.73 242.36,334.79 241.07,334.15"/>
    </edge>
    <edge id=":B3_15" function="internal">
        <lane id=":B3_15_0" index="0" speed="10.76" length="15.91" shape="242.00,350.67 242.69,348.14 242.30,344.81 240.84,340.68 238.30,335.75"/>
    </edge>
    <edge id=":B3_16" function="internal">
        <lane id=":B3_16_0" index="0" speed="13.89" length="22.78" shape="242.00,350.67 253.39,330.95"/>
        <lane id=":B3_16_1" index="1" speed="13.89" length="22.78" shape="244.77,352.27 256.16,332.55"/>
    </edge>
    <edge id=":B3_18" function="internal">
        <lane id=":B3_18_0" index="0" speed="12.74" length="3.61" shape="244.77,352.27 247.16,349.57"/>
    </edge>
    <edge id=":B3_19" function="internal">
        <lane id=":B3_19_0" index="0" speed="3.65" length="1.44" shape="244.77,352.27 246.06,351.64"/>
    </edge>
    <edge id=":B3_22" function="internal">
        <lane id=":B3_22_0" index="0" speed="12.74" length="18.95" shape="247.16,349.57 247.65,349.01 252.00,346.68 257.81,345.28 265.09,344.81"/>
    </edge>
    <edge id=":B3_23" function="internal">
        <lane id=":B3_23_0" index="0" speed="3.65" length="3.23" shape="246.06,351.64 246.95,351.69 247.45,352.44 247.54,353.87"/>
    </edge>
    <edge id=":B4_0" function="internal">
        <lane id=":B4_0_0" index="0" speed="10.76" length="15.91" shape="203.39,275.27 200.38,270.61 197.54,267.27 194.84,265.27 192.30,264.61"/>
    </edge>
    <edge id=":B4_1" function="internal">
        <lane id=":B4_1_0" index="0" speed="13.89" length="32.48" shape="203.39,275.27 200.04,267.54 198.92,259.81 200.04,252.08 203.39,244.34"/>
        <lane id=":B4_1_1" index="1" speed="13.89" length="29.12" shape="206.16,273.67 203.16,266.74 202.15,259.81 203.16,252.88 206.16,245.94"/>
    </edge>
    <edge id=":B4_3" function="internal">
        <lane id=":B4_3_0" index="0" speed="8.80" length="24.37" shape="206.16,273.67 203.37,266.91 203.92,262.07 207.83,259.17 215.09,258.21"/>
    </edge>
    <edge id=":B4_4" function="internal">
        <lane id=":B4_4_0" index="0" speed="3.65" length="4.67" shape="206.16,273.67 206.25,272.23 206.74,271.49 207.64,271.43 208.93,272.07"/>
    </edge>
    <edge id=":B4_5" function="internal">
        <lane id=":B4_5_0" index="0" speed="5.67" length="9.24" shape="215.09,264.61 212.33,264.97 210.85,266.07 210.64,267.91 211.70,270.47"/>
    </edge>
    <edge id=":B4_6" function="internal">
        <lane id=":B4_6_0" index="0" speed="13.89" length="22.78" shape="215.09,264.61 192.30,264.61"/>
        <lane id=":B4_6_1" index="1" speed="13.89" length="22.78" shape="215.09,261.41 192.30,261.41"/>
    </edge>
    <edge id=":B4_8" function="internal">
        <lane id=":B4_8_0" index="0" speed="8.80" length="5.36" shape="215.09,261.41 209.77,260.70"/>
    </edge>
    <edge id=":B4_9" function="internal">
        <lane id=":B4_9_0" index="0" speed="3.65" length="1.44" shape="215.09,261.41 213.89,260.61"/>
    </edge>
    <edge id=":B4_20" function="internal">
        <lane id=":B4_20_0" index="0" speed="8.80" length="19.01" shape="209.77,260.70 207.83,260.44 203.92,257.54 203.37,252.71 206.16,245.94"/>
    </edge>
    <edge id=":B4_21" function="internal">
        <lane id=":B4_21_0" index="0" speed="3.65" length="3.23" shape="213.89,260.61 213.49,259.81 213.89,259.01 215.09,258.21"/>
    </edge>
    <edge id=":B4_10" function="internal">
        <lane id=":B4_10_0" index="0" speed="5.67" length="9.24" shape="211.70,249.14 210.64,251.71 210.85,253.54 212.33,254.64 215.09,255.01"/>
    </edge>
    <edge id=":B4_11" function="internal">
        <lane id=":B4_11_0" index="0" speed="12.70" length="22.40" shape="211.70,249.14 209.39,254.48 208.62,259.81 209.39,265.14 211.70,270.47"/>
        <lane id=":B4_11_1" index="1" speed="13.59" length="25.76" shape="208.93,247.54 206.27,253.68 205.39,259.81 206.27,265.94 208.93,272.07"/>
    </edge>
    <edge id=":B4_13" function="internal">
        <lane id=":B4_13_0" index="0" speed="12.74" length="22.56" shape="208.93,247.54 204.89,253.61 200.77,257.94 196.58,260.54 192.30,261.41"/>
    </edge>
    <edge id=":B4_14" function="internal">
        <lane id=":B4_14_0" index="0" speed="3.65" length="4.67" shape="208.93,247.54 207.64,248.18 206.74,248.13 206.25,247.38 206.16,245.94"/>
    </edge>
    <edge id=":B4_15" function="internal">
        <lane id=":B4_15_0" index="0" speed="10.76" length="15.91" shape="192.30,255.01 194.84,254.34 197.54,252.34 200.38,249.01 203.39,244.34"/>
    </edge>
    <edge id=":B4_16" function="internal">
        <lane id=":B4_16_0" index="0" speed="13.89" length="22.78" shape="192.30,255.01 215.09,255.01"/>
        <lane id=":B4_16_1" index="1" speed="13.89" length="22.78" shape="192.30,258.21 215.09,258.21"/>
    </edge>
    <edge id=":B4_18" function="internal">
        <lane id=":B4_18_0" index="0" speed="12.74" length="3.61" shape="192.30,258.21 195.84,258.93"/>
    </edge>
    <edge id=":B4_19" function="internal">
        <lane id=":B4_19_0" index="0" speed="3.65" length="1.44" shape="192.30,258.21 193.50,259.01"/>
    </edge>
    <edge id=":B4_22" function="internal">
        <lane id=":B4_22_0" index="0" speed="12.74" length="18.95" shape="195.84,258.93 196.58,259.07 200.77,261.67 204.89,266.01 208.93,272.07"/>
    </edge>
    <edge id=":B4_23" function="internal">
        <lane id=":B4_23_0" index="0" speed="3.65" length="3.23" shape="193.50,259.01 193.90,259.81 193.50,260.61 192.30,261.41"/>
    </edge>
    <edge id=":B5_0" function="internal">
        <lane id=":B5_0_0" index="0" speed="5.67" length="9.24" shape="253.39,188.67 251.69,186.47 250.00,185.74 248.31,186.47 246.61,188.67"/>
    </edge>
    <edge id=":B5_1" function="internal">
        <lane id=":B5_1_0" index="0" speed="13.89" length="22.78" shape="253.39,188.67 242.00,168.94"/>
        <lane id=":B5_1_1" index="1" speed="13.89" length="22.78" shape="256.16,187.07 244.77,167.34"/>
    </edge>
    <edge id=":B5_3" function="internal">
        <lane id=":B5_3_0" index="0" speed="8.80" length="5.36" shape="256.16,187.07 254.11,182.11"/>
    </edge>
    <edge id=":B5_4" function="internal">
        <lane id=":B5_4_0" index="0" speed="3.65" length="1.44" shape="256.16,187.07 256.25,185.63"/>
    </edge>
    <edge id=":B5_20" function="internal">
        <lane id=":B5_20_0" index="0" speed="8.80" length="19.01" shape="254.11,182.11 253.37,180.30 253.92,175.47 257.83,172.57 265.09,171.61"/>
    </edge>
    <edge id=":B5_21" function="internal">
        <lane id=":B5_21_0" index="0" speed="3.65" length="3.23" shape="256.25,185.63 256.74,184.88 257.64,184.83 258.93,185.47"/>
    </edge>
    <edge id=":B5_5" function="internal">
        <lane id=":B5_5_0" index="0" speed="5.67" length="9.24" shape="265.09,178.01 262.33,178.37 260.85,179.47 260.64,181.30 261.70,183.87"/>
    </edge>
    <edge id=":B5_6" function="internal">
        <lane id=":B5_6_0" index="0" speed="12.70" length="22.40" shape="265.09,178.01 259.31,178.67 254.31,180.67 250.08,184.00 246.61,188.67"/>
        <lane id=":B5_6_1" index="1" speed="13.59" length="25.76" shape="265.09,174.81 258.45,175.57 252.69,177.87 247.83,181.70 243.84,187.07"/>
    </edge>
    <edge id=":B5_8" function="internal">
        <lane id=":B5_8_0" index="0" speed="12.74" length="22.56" shape="265.09,174.81 257.81,174.34 252.00,172.94 247.65,170.61 244.77,167.34"/>
    </edge>
    <edge id=":B5_9" function="internal">
        <lane id=":B5_9_0" index="0" speed="3.65" length="4.67" shape="265.09,174.81 263.89,174.01 263.49,173.21 263.89,172.41 265.09,171.61"/>
    </edge>
    <edge id=":B5_10" function="internal">
        <lane id=":B5_10_0" index="0" speed="10.76" length="15.91" shape="250.31,164.14 252.16,166.01 255.23,167.34 259.54,168.14 265.09,168.41"/>
    </edge>
    <edge id=":B5_11" function="internal">
        <lane id=":B5_11_0" index="0" speed="13.89" length="22.78" shape="250.31,164.14 261.70,183.87"/>
        <lane id=":B5_11_1" index="1" speed="13.89" length="22.78" shape="247.54,165.74 258.93,185.47"/>
    </edge>
    <edge id=":B5_13" function="internal">
        <lane id=":B5_13_0" index="0" speed="12.74" length="3.61" shape="247.54,165.74 248.69,169.16"/>
    </edge>
    <edge id=":B5_14" function="internal">
        <lane id=":B5_14_0" index="0" speed="3.65" length="1.44" shape="247.54,165.74 247.45,167.18"/>
    </edge>
    <edge id=":B5_22" function="internal">
        <lane id=":B5_22_0" index="0" speed="12.74" length="18.95" shape="248.69,169.16 248.92,169.87 248.77,174.81 247.08,180.54 243.84,187.07"/>
    </edge>
    <edge id=":B5_23" function="internal">
        <lane id=":B5_23_0" index="0" speed="3.65" length="3.23" shape="247.45,167.18 246.95,167.93 246.06,167.98 244.77,167.34"/>
    </edge>
    <edge id=":B5_15" function="internal">
        <lane id=":B5_15_0" index="0" speed="10.76" length="15.91" shape="238.30,183.87 240.84,178.94 242.30,174.81 242.69,171.47 242.00,168.94"/>
    </edge>
    <edge id=":B5_16" function="internal">
        <lane id=":B5_16_0" index="0" speed="13.89" length="32.48" shape="238.30,183.87 243.32,177.10 249.46,172.27 256.71,169.37 265.09,168.41"/>
        <lane id=":B5_16_1" index="1" speed="13.89" length="29.12" shape="241.07,185.47 245.57,179.40 251.08,175.07 257.58,172.47 265.09,171.61"/>
    </edge>
    <edge id=":B5_18" function="internal">
        <lane id=":B5_18_0" index="0" speed="8.80" length="24.37" shape="241.07,185.47 245.54,179.67 250.00,177.74 254.46,179.67 258.93,185.47"/>
    </edge>
    <edge id=":B5_19" function="internal">
        <lane id=":B5_19_0" index="0" speed="3.65" length="4.67" shape="241.07,185.47 242.36,184.83 243.26,184.88 243.75,185.63 243.84,187.07"/>
    </edge>
    <edge id=":B6_0" function="internal">
        <lane id=":B6_0_0" index="0" speed="5.67" length="9.24" shape="353.39,188.67 351.69,186.47 350.00,185.74 348.31,186.47 346.61,188.67"/>
    </edge>