<?xml version="1.0" encoding="UTF-8"?>

<!-- generated on 2025-04-27 19:37:21.297915 by randomTrips.py v1_22_0+0002-63e50f52594
<configuration>
    <net-file value="curriculum_scenarios\t_junction_2lane\t_junction_2lane.net.xml"/>
    <output-trip-file value="curriculum_scenarios\t_junction_2lane\t_junction_2lane_heavy.trips.xml"/>
    <prefix value="heavy_veh"/>
    <fringe-factor value="15.0"/>
    <min-distance value="200.0"/>
    <max-distance value="4000.0"/>
    <period value="0.8"/>
</configuration>
-->

<routes xmlns:xsi="http://www.w3.org/2001/XMLSchema-instance" xsi:noNamespaceSchemaLocation="http://sumo.dlr.de/xsd/routes_file.xsd">
    <trip id="heavy_veh0" depart="0.00" from="north_to_center" to="center_to_east"/>
    <trip id="heavy_veh1" depart="0.80" from="west_to_center" to="center_to_east"/>
    <trip id="heavy_veh2" depart="1.60" from="north_to_center" to="center_to_east"/>
    <trip id="heavy_veh3" depart="2.40" from="east_to_center" to="center_to_north"/>
    <trip id="heavy_veh4" depart="3.20" from="east_to_center" to="center_to_north"/>
    <trip id="heavy_veh5" depart="4.00" from="west_to_center" to="center_to_east"/>
    <trip id="heavy_veh6" depart="4.80" from="north_to_center" to="center_to_east"/>
    <trip id="heavy_veh7" depart="5.60" from="west_to_center" to="center_to_north"/>
    <trip id="heavy_veh8" depart="6.40" from="west_to_center" to="center_to_north"/>
    <trip id="heavy_veh9" depart="7.20" from="north_to_center" to="center_to_west"/>
    <trip id="heavy_veh10" depart="8.00" from="west_to_center" to="center_to_north"/>
    <trip id="heavy_veh11" depart="8.80" from="west_to_center" to="center_to_north"/>
    <trip id="heavy_veh12" depart="9.60" from="west_to_center" to="center_to_east"/>
    <trip id="heavy_veh13" depart="10.40" from="north_to_center" to="center_to_east"/>
    <trip id="heavy_veh14" depart="11.20" from="east_to_center" to="center_to_west"/>
    <trip id="heavy_veh15" depart="12.00" from="east_to_center" to="center_to_west"/>
    <trip id="heavy_veh16" depart="12.80" from="east_to_center" to="center_to_north"/>
    <trip id="heavy_veh17" depart="13.60" from="west_to_center" to="center_to_north"/>
    <trip id="heavy_veh18" depart="14.40" from="north_to_center" to="center_to_west"/>
    <trip id="heavy_veh19" depart="15.20" from="east_to_center" to="center_to_west"/>
    <trip id="heavy_veh20" depart="16.00" from="west_to_center" to="center_to_east"/>
    <trip id="heavy_veh21" depart="16.80" from="west_to_center" to="center_to_north"/>
    <trip id="heavy_veh22" depart="17.60" from="north_to_center" to="center_to_east"/>
    <trip id="heavy_veh23" depart="18.40" from="north_to_center" to="center_to_west"/>
    <trip id="heavy_veh24" depart="19.20" from="north_to_center" to="center_to_east"/>
    <trip id="heavy_veh25" depart="20.00" from="west_to_center" to="center_to_north"/>
    <trip id="heavy_veh26" depart="20.80" from="east_to_center" to="center_to_north"/>
    <trip id="heavy_veh27" depart="21.60" from="west_to_center" to="center_to_north"/>
    <trip id="heavy_veh28" depart="22.40" from="east_to_center" to="center_to_north"/>
    <trip id="heavy_veh29" depart="23.20" from="west_to_center" to="center_to_north"/>
    <trip id="heavy_veh30" depart="24.00" from="east_to_center" to="center_to_west"/>
    <trip id="heavy_veh31" depart="24.80" from="west_to_center" to="center_to_north"/>
    <trip id="heavy_veh32" depart="25.60" from="east_to_center" to="center_to_north"/>
    <trip id="heavy_veh33" depart="26.40" from="east_to_center" to="center_to_north"/>
    <trip id="heavy_veh34" depart="27.20" from="north_to_center" to="center_to_west"/>
    <trip id="heavy_veh35" depart="28.00" from="west_to_center" to="center_to_east"/>
    <trip id="heavy_veh36" depart="28.80" from="north_to_center" to="center_to_east"/>
    <trip id="heavy_veh37" depart="29.60" from="east_to_center" to="center_to_north"/>
    <trip id="heavy_veh38" depart="30.40" from="north_to_center" to="center_to_east"/>
    <trip id="heavy_veh39" depart="31.20" from="west_to_center" to="center_to_north"/>
    <trip id="heavy_veh40" depart="32.00" from="west_to_center" to="center_to_north"/>
    <trip id="heavy_veh41" depart="32.80" from="east_to_center" to="center_to_west"/>
    <trip id="heavy_veh42" depart="33.60" from="east_to_center" to="center_to_north"/>
    <trip id="heavy_veh43" depart="34.40" from="east_to_center" to="center_to_west"/>
    <trip id="heavy_veh44" depart="35.20" from="west_to_center" to="center_to_east"/>
    <trip id="heavy_veh45" depart="36.00" from="east_to_center" to="center_to_west"/>
    <trip id="heavy_veh46" depart="36.80" from="north_to_center" to="center_to_east"/>
    <trip id="heavy_veh47" depart="37.60" from="north_to_center" to="center_to_west"/>
    <trip id="heavy_veh48" depart="38.40" from="west_to_center" to="center_to_north"/>
    <trip id="heavy_veh49" depart="39.20" from="east_to_center" to="center_to_north"/>
    <trip id="heavy_veh50" depart="40.00" from="east_to_center" to="center_to_west"/>
    <trip id="heavy_veh51" depart="40.80" from="west_to_center" to="center_to_east"/>
    <trip id="heavy_veh52" depart="41.60" from="east_to_center" to="center_to_west"/>
    <trip id="heavy_veh53" depart="42.40" from="west_to_center" to="center_to_north"/>
    <trip id="heavy_veh54" depart="43.20" from="north_to_center" to="center_to_west"/>
    <trip id="heavy_veh55" depart="44.00" from="west_to_center" to="center_to_east"/>
    <trip id="heavy_veh56" depart="44.80" from="east_to_center" to="center_to_north"/>
    <trip id="heavy_veh57" depart="45.60" from="west_to_center" to="center_to_east"/>
    <trip id="heavy_veh58" depart="46.40" from="west_to_center" to="center_to_east"/>
    <trip id="heavy_veh59" depart="47.20" from="east_to_center" to="center_to_north"/>
    <trip id="heavy_veh60" depart="48.00" from="north_to_center" to="center_to_east"/>
    <trip id="heavy_veh61" depart="48.80" from="east_to_center" to="center_to_west"/>
    <trip id="heavy_veh62" depart="49.60" from="north_to_center" to="center_to_west"/>
    <trip id="heavy_veh63" depart="50.40" from="north_to_center" to="center_to_east"/>
    <trip id="heavy_veh64" depart="51.20" from="west_to_center" to="center_to_east"/>
    <trip id="heavy_veh65" depart="52.00" from="north_to_center" to="center_to_east"/>
    <trip id="heavy_veh66" depart="52.80" from="north_to_center" to="center_to_east"/>
    <trip id="heavy_veh67" depart="53.60" from="north_to_center" to="center_to_west"/>
    <trip id="heavy_veh68" depart="54.40" from="east_to_center" to="center_to_west"/>
    <trip id="heavy_veh69" depart="55.20" from="north_to_center" to="center_to_west"/>
    <trip id="heavy_veh70" depart="56.00" from="west_to_center" to="center_to_north"/>
    <trip id="heavy_veh71" depart="56.80" from="north_to_center" to="center_to_west"/>
    <trip id="heavy_veh72" depart="57.60" from="east_to_center" to="center_to_north"/>
    <trip id="heavy_veh73" depart="58.40" from="north_to_center" to="center_to_west"/>
    <trip id="heavy_veh74" depart="59.20" from="east_to_center" to="center_to_west"/>
    <trip id="heavy_veh75" depart="60.00" from="north_to_center" to="center_to_west"/>
    <trip id="heavy_veh76" depart="60.80" from="west_to_center" to="center_to_east"/>
    <trip id="heavy_veh77" depart="61.60" from="north_to_center" to="center_to_west"/>
    <trip id="heavy_veh78" depart="62.40" from="east_to_center" to="center_to_west"/>
    <trip id="heavy_veh79" depart="63.20" from="east_to_center" to="center_to_north"/>
    <trip id="heavy_veh80" depart="64.00" from="west_to_center" to="center_to_east"/>
    <trip id="heavy_veh81" depart="64.80" from="east_to_center" to="center_to_west"/>
    <trip id="heavy_veh82" depart="65.60" from="east_to_center" to="center_to_north"/>
    <trip id="heavy_veh83" depart="66.40" from="east_to_center" to="center_to_west"/>
    <trip id="heavy_veh84" depart="67.20" from="north_to_center" to="center_to_east"/>
    <trip id="heavy_veh85" depart="68.00" from="north_to_center" to="center_to_west"/>
    <trip id="heavy_veh86" depart="68.80" from="north_to_center" to="center_to_east"/>
    <trip id="heavy_veh87" depart="69.60" from="west_to_center" to="center_to_east"/>
    <trip id="heavy_veh88" depart="70.40" from="north_to_center" to="center_to_west"/>
    <trip id="heavy_veh89" depart="71.20" from="east_to_center" to="center_to_north"/>
    <trip id="heavy_veh90" depart="72.00" from="east_to_center" to="center_to_north"/>
    <trip id="heavy_veh91" depart="72.80" from="west_to_center" to="center_to_east"/>
    <trip id="heavy_veh92" depart="73.60" from="north_to_center" to="center_to_east"/>
    <trip id="heavy_veh93" depart="74.40" from="north_to_center" to="center_to_west"/>
    <trip id="heavy_veh94" depart="75.20" from="west_to_center" to="center_to_east"/>
    <trip id="heavy_veh95" depart="76.00" from="north_to_center" to="center_to_east"/>
    <trip id="heavy_veh96" depart="76.80" from="east_to_center" to="center_to_west"/>
    <trip id="heavy_veh97" depart="77.60" from="north_to_center" to="center_to_east"/>
    <trip id="heavy_veh98" depart="78.40" from="west_to_center" to="center_to_north"/>
    <trip id="heavy_veh99" depart="79.20" from="north_to_center" to="center_to_east"/>
    <trip id="heavy_veh100" depart="80.00" from="east_to_center" to="center_to_west"/>
    <trip id="heavy_veh101" depart="80.80" from="west_to_center" to="center_to_north"/>
    <trip id="heavy_veh102" depart="81.60" from="west_to_center" to="center_to_north"/>
    <trip id="heavy_veh103" depart="82.40" from="east_to_center" to="center_to_west"/>
    <trip id="heavy_veh104" depart="83.20" from="west_to_center" to="center_to_east"/>
    <trip id="heavy_veh105" depart="84.00" from="east_to_center" to="center_to_west"/>
    <trip id="heavy_veh106" depart="84.80" from="east_to_center" to="center_to_west"/>
    <trip id="heavy_veh107" depart="85.60" from="east_to_center" to="center_to_west"/>
    <trip id="heavy_veh108" depart="86.40" from="west_to_center" to="center_to_east"/>
    <trip id="heavy_veh109" depart="87.20" from="west_to_center" to="center_to_east"/>
    <trip id="heavy_veh110" depart="88.00" from="east_to_center" to="center_to_west"/>
    <trip id="heavy_veh111" depart="88.80" from="north_to_center" to="center_to_east"/>
    <trip id="heavy_veh112" depart="89.60" from="west_to_center" to="center_to_east"/>
    <trip id="heavy_veh113" depart="90.40" from="east_to_center" to="center_to_west"/>
    <trip id="heavy_veh114" depart="91.20" from="west_to_center" to="center_to_east"/>
    <trip id="heavy_veh115" depart="92.00" from="west_to_center" to="center_to_north"/>
    <trip id="heavy_veh116" depart="92.80" from="west_to_center" to="center_to_east"/>
    <trip id="heavy_veh117" depart="93.60" from="west_to_center" to="center_to_east"/>
    <trip id="heavy_veh118" depart="94.40" from="west_to_center" to="center_to_east"/>
    <trip id="heavy_veh119" depart="95.20" from="east_to_center" to="center_to_north"/>
    <trip id="heavy_veh120" depart="96.00" from="west_to_center" to="center_to_east"/>
    <trip id="heavy_veh121" depart="96.80" from="east_to_center" to="center_to_west"/>
    <trip id="heavy_veh122" depart="97.60" from="east_to_center" to="center_to_west"/>
    <trip id="heavy_veh123" depart="98.40" from="north_to_center" to="center_to_west"/>
    <trip id="heavy_veh124" depart="99.20" from="north_to_center" to="center_to_east"/>
    <trip id="heavy_veh125" depart="100.00" from="north_to_center" to="center_to_east"/>
    <trip id="heavy_veh126" depart="100.80" from="east_to_center" to="center_to_west"/>
    <trip id="heavy_veh127" depart="101.60" from="west_to_center" to="center_to_east"/>
    <trip id="heavy_veh128" depart="102.40" from="east_to_center" to="center_to_north"/>
    <trip id="heavy_veh129" depart="103.20" from="north_to_center" to="center_to_east"/>
    <trip id="heavy_veh130" depart="104.00" from="east_to_center" to="center_to_north"/>
    <trip id="heavy_veh131" depart="104.80" from="west_to_center" to="center_to_north"/>
    <trip id="heavy_veh132" depart="105.60" from="east_to_center" to="center_to_north"/>
    <trip id="heavy_veh133" depart="106.40" from="north_to_center" to="center_to_east"/>
    <trip id="heavy_veh134" depart="107.20" from="north_to_center" to="center_to_west"/>
    <trip id="heavy_veh135" depart="108.00" from="west_to_center" to="center_to_east"/>
    <trip id="heavy_veh136" depart="108.80" from="east_to_center" to="center_to_north"/>
    <trip id="heavy_veh137" depart="109.60" from="west_to_center" to="center_to_east"/>
    <trip id="heavy_veh138" depart="110.40" from="east_to_center" to="center_to_north"/>
    <trip id="heavy_veh139" depart="111.20" from="west_to_center" to="center_to_east"/>
    <trip id="heavy_veh140" depart="112.00" from="east_to_center" to="center_to_west"/>
    <trip id="heavy_veh141" depart="112.80" from="north_to_center" to="center_to_east"/>
    <trip id="heavy_veh142" depart="113.60" from="north_to_center" to="center_to_east"/>
    <trip id="heavy_veh143" depart="114.40" from="east_to_center" to="center_to_north"/>
    <trip id="heavy_veh144" depart="115.20" from="east_to_center" to="center_to_west"/>
    <trip id="heavy_veh145" depart="116.00" from="north_to_center" to="center_to_east"/>
    <trip id="heavy_veh146" depart="116.80" from="east_to_center" to="center_to_west"/>
    <trip id="heavy_veh147" depart="117.60" from="north_to_center" to="center_to_west"/>
    <trip id="heavy_veh148" depart="118.40" from="north_to_center" to="center_to_west"/>
    <trip id="heavy_veh149" depart="119.20" from="west_to_center" to="center_to_north"/>
    <trip id="heavy_veh150" depart="120.00" from="west_to_center" to="center_to_north"/>
    <trip id="heavy_veh151" depart="120.80" from="west_to_center" to="center_to_north"/>
    <trip id="heavy_veh152" depart="121.60" from="north_to_center" to="center_to_east"/>
    <trip id="heavy_veh153" depart="122.40" from="east_to_center" to="center_to_north"/>
    <trip id="heavy_veh154" depart="123.20" from="west_to_center" to="center_to_north"/>
    <trip id="heavy_veh155" depart="124.00" from="north_to_center" to="center_to_east"/>
    <trip id="heavy_veh156" depart="124.80" from="north_to_center" to="center_to_east"/>
    <trip id="heavy_veh157" depart="125.60" from="east_to_center" to="center_to_west"/>
    <trip id="heavy_veh158" depart="126.40" from="west_to_center" to="center_to_east"/>
    <trip id="heavy_veh159" depart="127.20" from="north_to_center" to="center_to_east"/>
    <trip id="heavy_veh160" depart="128.00" from="north_to_center" to="center_to_west"/>
    <trip id="heavy_veh161" depart="128.80" from="north_to_center" to="center_to_west"/>
    <trip id="heavy_veh162" depart="129.60" from="north_to_center" to="center_to_east"/>
    <trip id="heavy_veh163" depart="130.40" from="north_to_center" to="center_to_west"/>
    <trip id="heavy_veh164" depart="131.20" from="north_to_center" to="center_to_west"/>
    <trip id="heavy_veh165" depart="132.00" from="north_to_center" to="center_to_east"/>
    <trip id="heavy_veh166" depart="132.80" from="north_to_center" to="center_to_west"/>
    <trip id="heavy_veh167" depart="133.60" from="north_to_center" to="center_to_east"/>
    <trip id="heavy_veh168" depart="134.40" from="north_to_center" to="center_to_east"/>
    <trip id="heavy_veh169" depart="135.20" from="north_to_center" to="center_to_east"/>
    <trip id="heavy_veh170" depart="136.00" from="east_to_center" to="center_to_north"/>
    <trip id="heavy_veh171" depart="136.80" from="east_to_center" to="center_to_north"/>
    <trip id="heavy_veh172" depart="137.60" from="east_to_center" to="center_to_north"/>
    <trip id="heavy_veh173" depart="138.40" from="west_to_center" to="center_to_north"/>
    <trip id="heavy_veh174" depart="139.20" from="east_to_center" to="center_to_north"/>
    <trip id="heavy_veh175" depart="140.00" from="west_to_center" to="center_to_north"/>
    <trip id="heavy_veh176" depart="140.80" from="north_to_center" to="center_to_west"/>
    <trip id="heavy_veh177" depart="141.60" from="north_to_center" to="center_to_west"/>
    <trip id="heavy_veh178" depart="142.40" from="west_to_center" to="center_to_east"/>
    <trip id="heavy_veh179" depart="143.20" from="east_to_center" to="center_to_west"/>
    <trip id="heavy_veh180" depart="144.00" from="north_to_center" to="center_to_east"/>
    <trip id="heavy_veh181" depart="144.80" from="east_to_center" to="center_to_north"/>
    <trip id="heavy_veh182" depart="145.60" from="west_to_center" to="center_to_east"/>
    <trip id="heavy_veh183" depart="146.40" from="east_to_center" to="center_to_west"/>
    <trip id="heavy_veh184" depart="147.20" from="west_to_center" to="center_to_north"/>
    <trip id="heavy_veh185" depart="148.00" from="west_to_center" to="center_to_east"/>
    <trip id="heavy_veh186" depart="148.80" from="west_to_center" to="center_to_north"/>
    <trip id="heavy_veh187" depart="149.60" from="east_to_center" to="center_to_west"/>
    <trip id="heavy_veh188" depart="150.40" from="west_to_center" to="center_to_north"/>
    <trip id="heavy_veh189" depart="151.20" from="east_to_center" to="center_to_west"/>
    <trip id="heavy_veh190" depart="152.00" from="west_to_center" to="center_to_north"/>
    <trip id="heavy_veh191" depart="152.80" from="east_to_center" to="center_to_west"/>
    <trip id="heavy_veh192" depart="153.60" from="north_to_center" to="center_to_west"/>
    <trip id="heavy_veh193" depart="154.40" from="west_to_center" to="center_to_north"/>
    <trip id="heavy_veh194" depart="155.20" from="east_to_center" to="center_to_west"/>
    <trip id="heavy_veh195" depart="156.00" from="north_to_center" to="center_to_west"/>
    <trip id="heavy_veh196" depart="156.80" from="east_to_center" to="center_to_west"/>
    <trip id="heavy_veh197" depart="157.60" from="west_to_center" to="center_to_east"/>
    <trip id="heavy_veh198" depart="158.40" from="west_to_center" to="center_to_east"/>
    <trip id="heavy_veh199" depart="159.20" from="north_to_center" to="center_to_east"/>
    <trip id="heavy_veh200" depart="160.00" from="west_to_center" to="center_to_east"/>
    <trip id="heavy_veh201" depart="160.80" from="east_to_center" to="center_to_west"/>
    <trip id="heavy_veh202" depart="161.60" from="north_to_center" to="center_to_west"/>
    <trip id="heavy_veh203" depart="162.40" from="west_to_center" to="center_to_east"/>
    <trip id="heavy_veh204" depart="163.20" from="east_to_center" to="center_to_west"/>
    <trip id="heavy_veh205" depart="164.00" from="east_to_center" to="center_to_west"/>
    <trip id="heavy_veh206" depart="164.80" from="north_to_center" to="center_to_west"/>
    <trip id="heavy_veh207" depart="165.60" from="west_to_center" to="center_to_north"/>
    <trip id="heavy_veh208" depart="166.40" from="north_to_center" to="center_to_west"/>
    <trip id="heavy_veh209" depart="167.20" from="west_to_center" to="center_to_east"/>
    <trip id="heavy_veh210" depart="168.00" from="west_to_center" to="center_to_east"/>
    <trip id="heavy_veh211" depart="168.80" from="west_to_center" to="center_to_east"/>
    <trip id="heavy_veh212" depart="169.60" from="north_to_center" to="center_to_west"/>
    <trip id="heavy_veh213" depart="170.40" from="north_to_center" to="center_to_west"/>
    <trip id="heavy_veh214" depart="171.20" from="west_to_center" to="center_to_north"/>
    <trip id="heavy_veh215" depart="172.00" from="north_to_center" to="center_to_east"/>
    <trip id="heavy_veh216" depart="172.80" from="west_to_center" to="center_to_north"/>
    <trip id="heavy_veh217" depart="173.60" from="west_to_center" to="center_to_east"/>
    <trip id="heavy_veh218" depart="174.40" from="west_to_center" to="center_to_north"/>
    <trip id="heavy_veh219" depart="175.20" from="west_to_center" to="center_to_north"/>
    <trip id="heavy_veh220" depart="176.00" from="west_to_center" to="center_to_north"/>
    <trip id="heavy_veh221" depart="176.80" from="west_to_center" to="center_to_north"/>
    <trip id="heavy_veh222" depart="177.60" from="east_to_center" to="center_to_north"/>
    <trip id="heavy_veh223" depart="178.40" from="north_to_center" to="center_to_east"/>
    <trip id="heavy_veh224" depart="179.20" from="west_to_center" to="center_to_east"/>
    <trip id="heavy_veh225" depart="180.00" from="west_to_center" to="center_to_north"/>
    <trip id="heavy_veh226" depart="180.80" from="west_to_center" to="center_to_east"/>
    <trip id="heavy_veh227" depart="181.60" from="north_to_center" to="center_to_west"/>
    <trip id="heavy_veh228" depart="182.40" from="west_to_center" to="center_to_east"/>
    <trip id="heavy_veh229" depart="183.20" from="north_to_center" to="center_to_east"/>
    <trip id="heavy_veh230" depart="184.00" from="east_to_center" to="center_to_north"/>
    <trip id="heavy_veh231" depart="184.80" from="north_to_center" to="center_to_east"/>
    <trip id="heavy_veh232" depart="185.60" from="east_to_center" to="center_to_west"/>
    <trip id="heavy_veh233" depart="186.40" from="west_to_center" to="center_to_north"/>
    <trip id="heavy_veh234" depart="187.20" from="west_to_center" to="center_to_north"/>
    <trip id="heavy_veh235" depart="188.00" from="north_to_center" to="center_to_west"/>
    <trip id="heavy_veh236" depart="188.80" from="north_to_center" to="center_to_west"/>
    <trip id="heavy_veh237" depart="189.60" from="west_to_center" to="center_to_east"/>
    <trip id="heavy_veh238" depart="190.40" from="west_to_center" to="center_to_north"/>
    <trip id="heavy_veh239" depart="191.20" from="west_to_center" to="center_to_north"/>
    <trip id="heavy_veh240" depart="192.00" from="north_to_center" to="center_to_east"/>
    <trip id="heavy_veh241" depart="192.80" from="east_to_center" to="center_to_north"/>
    <trip id="heavy_veh242" depart="193.60" from="east_to_center" to="center_to_west"/>
    <trip id="heavy_veh243" depart="194.40" from="west_to_center" to="center_to_north"/>
    <trip id="heavy_veh244" depart="195.20" from="west_to_center" to="center_to_east"/>
    <trip id="heavy_veh245" depart="196.00" from="east_to_center" to="center_to_west"/>
    <trip id="heavy_veh246" depart="196.80" from="west_to_center" to="center_to_east"/>
    <trip id="heavy_veh247" depart="197.60" from="north_to_center" to="center_to_east"/>
    <trip id="heavy_veh248" depart="198.40" from="north_to_center" to="center_to_east"/>
    <trip id="heavy_veh249" depart="199.20" from="east_to_center" to="center_to_west"/>
    <trip id="heavy_veh250" depart="200.00" from="east_to_center" to="center_to_west"/>
    <trip id="heavy_veh251" depart="200.80" from="west_to_center" to="center_to_north"/>
    <trip id="heavy_veh252" depart="201.60" from="north_to_center" to="center_to_east"/>
    <trip id="heavy_veh253" depart="202.40" from="east_to_center" to="center_to_west"/>
    <trip id="heavy_veh254" depart="203.20" from="west_to_center" to="center_to_north"/>
    <trip id="heavy_veh255" depart="204.00" from="east_to_center" to="center_to_north"/>
    <trip id="heavy_veh256" depart="204.80" from="west_to_center" to="center_to_north"/>
    <trip id="heavy_veh257" depart="205.60" from="west_to_center" to="center_to_east"/>
    <trip id="heavy_veh258" depart="206.40" from="north_to_center" to="center_to_west"/>
    <trip id="heavy_veh259" depart="207.20" from="north_to_center" to="center_to_west"/>
    <trip id="heavy_veh260" depart="208.00" from="east_to_center" to="center_to_west"/>
    <trip id="heavy_veh261" depart="208.80" from="north_to_center" to="center_to_east"/>
    <trip id="heavy_veh262" depart="209.60" from="east_to_center" to="center_to_north"/>
    <trip id="heavy_veh263" depart="210.40" from="north_to_center" to="center_to_east"/>
    <trip id="heavy_veh264" depart="211.20" from="north_to_center" to="center_to_east"/>
    <trip id="heavy_veh265" depart="212.00" from="west_to_center" to="center_to_north"/>
    <trip id="heavy_veh266" depart="212.80" from="west_to_center" to="center_to_north"/>
    <trip id="heavy_veh267" depart="213.60" from="east_to_center" to="center_to_west"/>
    <trip id="heavy_veh268" depart="214.40" from="west_to_center" to="center_to_east"/>
    <trip id="heavy_veh269" depart="215.20" from="west_to_center" to="center_to_north"/>
    <trip id="heavy_veh270" depart="216.00" from="east_to_center" to="center_to_west"/>
    <trip id="heavy_veh271" depart="216.80" from="north_to_center" to="center_to_west"/>
    <trip id="heavy_veh272" depart="217.60" from="north_to_center" to="center_to_west"/>
    <trip id="heavy_veh273" depart="218.40" from="north_to_center" to="center_to_west"/>
    <trip id="heavy_veh274" depart="219.20" from="north_to_center" to="center_to_east"/>
    <trip id="heavy_veh275" depart="220.00" from="north_to_center" to="center_to_east"/>
    <trip id="heavy_veh276" depart="220.80" from="east_to_center" to="center_to_west"/>
    <trip id="heavy_veh277" depart="221.60" from="north_to_center" to="center_to_east"/>
    <trip id="heavy_veh278" depart="222.40" from="west_to_center" to="center_to_east"/>
    <trip id="heavy_veh279" depart="223.20" from="west_to_center" to="center_to_north"/>
    <trip id="heavy_veh280" depart="224.00" from="north_to_center" to="center_to_west"/>
    <trip id="heavy_veh281" depart="224.80" from="west_to_center" to="center_to_north"/>
    <trip id="heavy_veh282" depart="225.60" from="east_to_center" to="center_to_north"/>
    <trip id="heavy_veh283" depart="226.40" from="north_to_center" to="center_to_west"/>
    <trip id="heavy_veh284" depart="227.20" from="west_to_center" to="center_to_north"/>
    <trip id="heavy_veh285" depart="228.00" from="west_to_center" to="center_to_north"/>
    <trip id="heavy_veh286" depart="228.80" from="north_to_center" to="center_to_east"/>
    <trip id="heavy_veh287" depart="229.60" from="north_to_center" to="center_to_west"/>
    <trip id="heavy_veh288" depart="230.40" from="north_to_center" to="center_to_west"/>
    <trip id="heavy_veh289" depart="231.20" from="north_to_center" to="center_to_west"/>
    <trip id="heavy_veh290" depart="232.00" from="north_to_center" to="center_to_east"/>
    <trip id="heavy_veh291" depart="232.80" from="west_to_center" to="center_to_east"/>
    <trip id="heavy_veh292" depart="233.60" from="east_to_center" to="center_to_north"/>
    <trip id="heavy_veh293" depart="234.40" from="west_to_center" to="center_to_north"/>
    <trip id="heavy_veh294" depart="235.20" from="east_to_center" to="center_to_north"/>
    <trip id="heavy_veh295" depart="236.00" from="west_to_center" to="center_to_north"/>
    <trip id="heavy_veh296" depart="236.80" from="east_to_center" to="center_to_west"/>
    <trip id="heavy_veh297" depart="237.60" from="east_to_center" to="center_to_north"/>
    <trip id="heavy_veh298" depart="238.40" from="east_to_center" to="center_to_north"/>
    <trip id="heavy_veh299" depart="239.20" from="north_to_center" to="center_to_west"/>
    <trip id="heavy_veh300" depart="240.00" from="west_to_center" to="center_to_north"/>
    <trip id="heavy_veh301" depart="240.80" from="east_to_center" to="center_to_west"/>
    <trip id="heavy_veh302" depart="241.60" from="east_to_center" to="center_to_north"/>
    <trip id="heavy_veh303" depart="242.40" from="east_to_center" to="center_to_west"/>
    <trip id="heavy_veh304" depart="243.20" from="east_to_center" to="center_to_north"/>
    <trip id="heavy_veh305" depart="244.00" from="east_to_center" to="center_to_west"/>
    <trip id="heavy_veh306" depart="244.80" from="east_to_center" to="center_to_north"/>
    <trip id="heavy_veh307" depart="245.60" from="north_to_center" to="center_to_east"/>
    <trip id="heavy_veh308" depart="246.40" from="west_to_center" to="center_to_east"/>
    <trip id="heavy_veh309" depart="247.20" from="west_to_center" to="center_to_north"/>
    <trip id="heavy_veh310" depart="248.00" from="east_to_center" to="center_to_north"/>
    <trip id="heavy_veh311" depart="248.80" from="east_to_center" to="center_to_north"/>
    <trip id="heavy_veh312" depart="249.60" from="north_to_center" to="center_to_west"/>
    <trip id="heavy_veh313" depart="250.40" from="east_to_center" to="center_to_west"/>
    <trip id="heavy_veh314" depart="251.20" from="north_to_center" to="center_to_west"/>
    <trip id="heavy_veh315" depart="252.00" from="north_to_center" to="center_to_west"/>
    <trip id="heavy_veh316" depart="252.80" from="north_to_center" to="center_to_east"/>
    <trip id="heavy_veh317" depart="253.60" from="west_to_center" to="center_to_east"/>
    <trip id="heavy_veh318" depart="254.40" from="east_to_center" to="center_to_west"/>
    <trip id="heavy_veh319" depart="255.20" from="north_to_center" to="center_to_west"/>
    <trip id="heavy_veh320" depart="256.00" from="north_to_center" to="center_to_west"/>
    <trip id="heavy_veh321" depart="256.80" from="west_to_center" to="center_to_east"/>
    <trip id="heavy_veh322" depart="257.60" from="west_to_center" to="center_to_north"/>
    <trip id="heavy_veh323" depart="258.40" from="north_to_center" to="center_to_east"/>
    <trip id="heavy_veh324" depart="259.20" from="west_to_center" to="center_to_east"/>
    <trip id="heavy_veh325" depart="260.00" from="north_to_center" to="center_to_west"/>
    <trip id="heavy_veh326" depart="260.80" from="east_to_center" to="center_to_north"/>
    <trip id="heavy_veh327" depart="261.60" from="north_to_center" to="center_to_west"/>
    <trip id="heavy_veh328" depart="262.40" from="west_to_center" to="center_to_north"/>
    <trip id="heavy_veh329" depart="263.20" from="east_to_center" to="center_to_west"/>
    <trip id="heavy_veh330" depart="264.00" from="north_to_center" to="center_to_west"/>
    <trip id="heavy_veh331" depart="264.80" from="east_to_center" to="center_to_north"/>
    <trip id="heavy_veh332" depart="265.60" from="east_to_center" to="center_to_west"/>