<?xml version="1.0" encoding="UTF-8"?>

<!-- generated on 2025-04-27 19:37:24 by Eclipse SUMO netgenerate Version 1.22.0
<netgenerateConfiguration xmlns:xsi="http://www.w3.org/2001/XMLSchema-instance" xsi:noNamespaceSchemaLocation="http://sumo.dlr.de/xsd/netgenerateConfiguration.xsd">

    <spider_network>
        <spider value="true"/>
        <spider.arm-number value="5"/>
        <spider.circle-number value="3"/>
        <spider.space-radius value="100"/>
    </spider_network>

    <output>
        <output-file value="curriculum_scenarios\spider_5arms_2lane\spider_5arms_2lane_base.net.xml"/>
    </output>

    <building_defaults>
        <default.lanenumber value="2"/>
    </building_defaults>

</netgenerateConfiguration>
-->

<net version="1.20" junctionCornerDetail="5" limitTurnSpeed="5.50" xmlns:xsi="http://www.w3.org/2001/XMLSchema-instance" xsi:noNamespaceSchemaLocation="http://sumo.dlr.de/xsd/net_file.xsd">

    <location netOffset="242.71,285.32" convBoundary="0.00,0.00,542.71,570.63" origBoundary="-242.71,-285.32,300.00,285.32" projParameter="!"/>

    <edge id=":A1_0" function="internal">
        <lane id=":A1_0_0" index="0" speed="5.93" length="9.09" shape="242.10,298.98 240.95,296.63 239.41,295.47 237.48,295.50 235.16,296.73"/>
    </edge>
    <edge id=":A1_1" function="internal">
        <lane id=":A1_1_0" index="0" speed="13.89" length="21.96" shape="242.10,298.98 239.97,293.09 237.68,288.96 234.46,285.52 229.52,281.67"/>
        <lane id=":A1_1_1" index="1" speed="13.89" length="23.91" shape="245.14,297.99 242.83,291.85 240.15,287.18 236.53,283.18 231.40,279.08"/>
    </edge>
    <edge id=":A1_3" function="internal">
        <lane id=":A1_3_0" index="0" speed="13.89" length="26.44" shape="245.14,297.99 242.93,291.20 241.30,284.82 240.84,278.44 242.10,271.65"/>
        <lane id=":A1_3_1" index="1" speed="13.89" length="26.44" shape="245.14,297.99 243.40,291.36 242.82,285.32 243.40,279.28 245.14,272.64"/>
    </edge>
    <edge id=":A1_5" function="internal">
        <lane id=":A1_5_0" index="0" speed="8.40" length="19.52" shape="245.14,297.99 245.17,293.40 247.44,288.76 251.16,285.16 255.51,283.72"/>
    </edge>
    <edge id=":A1_6" function="internal">
        <lane id=":A1_6_0" index="0" speed="3.65" length="4.67" shape="245.14,297.99 245.53,296.60 246.17,295.98 247.05,296.11 248.18,297.00"/>
    </edge>
    <edge id=":A1_7" function="internal">
        <lane id=":A1_7_0" index="0" speed="5.93" length="9.09" shape="255.51,290.12 252.92,290.49 251.34,291.59 250.78,293.43 251.23,296.02"/>
    </edge>
    <edge id=":A1_8" function="internal">
        <lane id=":A1_8_0" index="0" speed="13.89" length="21.96" shape="255.51,290.12 249.25,290.32 244.62,291.22 240.35,293.22 235.16,296.73"/>
        <lane id=":A1_8_1" index="1" speed="13.89" length="23.91" shape="255.51,286.92 248.96,287.22 243.68,288.32 238.76,290.53 233.28,294.14"/>
    </edge>
    <edge id=":A1_10" function="internal">
        <lane id=":A1_10_0" index="0" speed="13.89" length="26.44" shape="255.51,286.92 248.37,286.92 241.80,286.50 235.59,284.97 229.52,281.67"/>
        <lane id=":A1_10_1" index="1" speed="13.89" length="26.44" shape="255.51,286.92 248.67,286.52 242.74,285.20 237.18,282.79 231.40,279.08"/>
    </edge>
    <edge id=":A1_12" function="internal">
        <lane id=":A1_12_0" index="0" speed="8.40" length="19.52" shape="255.51,286.92 251.16,285.47 247.44,281.88 245.17,277.23 245.14,272.64"/>
    </edge>
    <edge id=":A1_13" function="internal">
        <lane id=":A1_13_0" index="0" speed="3.65" length="4.67" shape="255.51,286.92 254.31,286.12 253.91,285.32 254.31,284.52 255.51,283.72"/>
    </edge>
    <edge id=":A1_14" function="internal">
        <lane id=":A1_14_0" index="0" speed="5.93" length="9.09" shape="251.23,274.62 250.78,277.20 251.34,279.04 252.92,280.15 255.51,280.52"/>
    </edge>
    <edge id=":A1_15" function="internal">
        <lane id=":A1_15_0" index="0" speed="13.89" length="21.96" shape="251.23,274.62 249.49,280.64 248.91,285.32 249.49,290.00 251.23,296.02"/>
        <lane id=":A1_15_1" index="1" speed="13.89" length="23.91" shape="248.18,273.63 246.45,279.96 245.87,285.32 246.45,290.68 248.18,297.00"/>
    </edge>
    <edge id=":A1_17" function="internal">
        <lane id=":A1_17_0" index="0" speed="13.89" length="26.44" shape="248.18,273.63 245.98,280.42 243.55,286.54 240.18,291.98 235.16,296.73"/>
        <lane id=":A1_17_1" index="1" speed="13.89" length="26.44" shape="248.18,273.63 245.69,280.02 242.61,285.25 238.59,289.79 233.28,294.14"/>
    </edge>
    <edge id=":A1_19" function="internal">
        <lane id=":A1_19_0" index="0" speed="8.40" length="19.52" shape="248.18,273.63 245.46,277.33 240.90,279.75 235.78,280.48 231.40,279.08"/>
    </edge>
    <edge id=":A1_20" function="internal">
        <lane id=":A1_20_0" index="0" speed="3.65" length="4.67" shape="248.18,273.63 247.05,274.52 246.17,274.66 245.53,274.03 245.14,272.64"/>
    </edge>
    <edge id=":A1_21" function="internal">
        <lane id=":A1_21_0" index="0" speed="5.93" length="9.09" shape="235.16,273.90 237.48,275.13 239.41,275.16 240.95,274.00 242.10,271.65"/>
    </edge>
    <edge id=":A1_22" function="internal">
        <lane id=":A1_22_0" index="0" speed="13.89" length="21.96" shape="235.16,273.90 240.35,277.42 244.62,279.42 249.25,280.31 255.51,280.52"/>
        <lane id=":A1_22_1" index="1" speed="13.89" length="23.91" shape="233.28,276.49 238.76,280.10 243.68,282.31 248.96,283.41 255.51,283.72"/>
    </edge>
    <edge id=":A1_24" function="internal">
        <lane id=":A1_24_0" index="0" speed="13.89" length="26.44" shape="233.28,276.49 239.07,280.69 244.13,284.89 248.26,289.78 251.23,296.02"/>
        <lane id=":A1_24_1" index="1" speed="13.89" length="26.44" shape="233.28,276.49 238.59,280.84 242.61,285.39 245.69,290.61 248.18,297.00"/>
    </edge>
    <edge id=":A1_26" function="internal">
        <lane id=":A1_26_0" index="0" speed="8.40" length="19.52" shape="233.28,276.49 235.96,280.22 236.85,285.32 235.96,290.41 233.28,294.14"/>
    </edge>
    <edge id=":A1_27" function="internal">
        <lane id=":A1_27_0" index="0" speed="3.65" length="4.67" shape="233.28,276.49 233.78,277.85 233.64,278.73 232.84,279.14 231.40,279.08"/>
    </edge>
    <edge id=":A1_28" function="internal">
        <lane id=":A1_28_0" index="0" speed="5.93" length="9.09" shape="229.52,288.96 231.40,287.14 232.03,285.32 231.40,283.49 229.52,281.67"/>
    </edge>
    <edge id=":A1_29" function="internal">
        <lane id=":A1_29_0" index="0" speed="13.89" length="21.96" shape="229.52,288.96 234.46,285.12 237.68,281.67 239.97,277.54 242.10,271.65"/>
        <lane id=":A1_29_1" index="1" speed="13.89" length="23.91" shape="231.40,291.55 236.53,287.45 240.15,283.46 242.83,278.78 245.14,272.64"/>
    </edge>
    <edge id=":A1_31" function="internal">
        <lane id=":A1_31_0" index="0" speed="13.89" length="26.44" shape="231.40,291.55 237.18,287.35 242.74,283.83 248.67,281.41 255.51,280.52"/>
        <lane id=":A1_31_1" index="1" speed="13.89" length="26.44" shape="231.40,291.55 237.18,287.85 242.74,285.43 248.67,284.11 255.51,283.72"/>
    </edge>
    <edge id=":A1_33" function="internal">
        <lane id=":A1_33_0" index="0" speed="8.40" length="19.52" shape="231.40,291.55 235.78,290.16 240.90,290.88 245.46,293.31 248.18,297.00"/>
    </edge>
    <edge id=":A1_34" function="internal">
        <lane id=":A1_34_0" index="0" speed="3.65" length="4.67" shape="231.40,291.55 232.84,291.49 233.64,291.91 233.78,292.79 233.28,294.14"/>
    </edge>
    <edge id=":B1_0" function="internal">
        <lane id=":B1_0_0" index="0" speed="12.18" length="17.81" shape="349.97,290.12 347.34,290.83 344.28,292.97 340.78,296.54 336.85,301.54"/>
    </edge>
    <edge id=":B1_1" function="internal">
        <lane id=":B1_1_0" index="0" speed="13.89" length="23.82" shape="349.97,290.12 326.14,290.12"/>
        <lane id=":B1_1_1" index="1" speed="13.89" length="23.82" shape="349.97,286.92 326.14,286.92"/>
    </edge>
    <edge id=":B1_3" function="internal">
        <lane id=":B1_3_0" index="0" speed="13.89" length="3.49" shape="349.97,286.92 346.55,286.20"/>
    </edge>
    <edge id=":B1_4" function="internal">
        <lane id=":B1_4_0" index="0" speed="3.65" length="1.44" shape="349.97,286.92 348.77,286.12"/>
    </edge>
    <edge id=":B1_20" function="internal">
        <lane id=":B1_20_0" index="0" speed="13.89" length="20.28" shape="346.55,286.20 345.79,286.04 341.36,283.40 336.65,279.01 331.68,272.86"/>
    </edge>
    <edge id=":B1_21" function="internal">
        <lane id=":B1_21_0" index="0" speed="3.65" length="3.23" shape="348.77,286.12 348.37,285.32 348.77,284.52 349.97,283.72"/>
    </edge>
    <edge id=":B1_5" function="internal">
        <lane id=":B1_5_0" index="0" speed="12.18" length="17.81" shape="336.85,269.10 340.78,274.09 344.28,277.66 347.34,279.80 349.97,280.52"/>
    </edge>
    <edge id=":B1_6" function="internal">
        <lane id=":B1_6_0" index="0" speed="13.89" length="34.96" shape="336.85,269.10 341.27,277.21 342.75,285.32 341.27,293.43 336.85,301.54"/>
        <lane id=":B1_6_1" index="1" speed="13.24" length="30.90" shape="334.27,270.98 338.17,278.15 339.47,285.32 338.17,292.49 334.27,299.66"/>
    </edge>
    <edge id=":B1_8" function="internal">
        <lane id=":B1_8_0" index="0" speed="8.82" length="25.88" shape="334.27,270.98 338.10,277.95 338.03,282.93 334.04,285.92 326.14,286.92"/>
    </edge>
    <edge id=":B1_9" function="internal">
        <lane id=":B1_9_0" index="0" speed="3.65" length="4.67" shape="334.27,270.98 334.32,272.42 333.91,273.21 333.03,273.36 331.68,272.86"/>
    </edge>
    <edge id=":B1_10" function="internal">
        <lane id=":B1_10_0" index="0" speed="5.57" length="9.38" shape="326.14,280.52 329.01,280.16 330.45,279.07 330.48,277.27 329.09,274.74"/>
    </edge>
    <edge id=":B1_11" function="internal">
        <lane id=":B1_11_0" index="0" speed="13.89" length="23.82" shape="326.14,280.52 349.97,280.52"/>
        <lane id=":B1_11_1" index="1" speed="13.89" length="23.82" shape="326.14,283.72 349.97,283.72"/>
    </edge>
    <edge id=":B1_13" function="internal">
        <lane id=":B1_13_0" index="0" speed="8.82" length="5.65" shape="326.14,283.72 331.75,284.42"/>
    </edge>
    <edge id=":B1_14" function="internal">
        <lane id=":B1_14_0" index="0" speed="3.65" length="1.44" shape="326.14,283.72 327.34,284.52"/>
    </edge>
    <edge id=":B1_22" function="internal">
        <lane id=":B1_22_0" index="0" speed="8.82" length="20.23" shape="331.75,284.42 334.04,284.71 338.03,287.70 338.10,292.68 334.27,299.66"/>
    </edge>
    <edge id=":B1_23" function="internal">
        <lane id=":B1_23_0" index="0" speed="3.65" length="3.23" shape="327.34,284.52 327.74,285.32 327.34,286.12 326.14,286.92"/>
    </edge>
    <edge id=":B1_15" function="internal">
        <lane id=":B1_15_0" index="0" speed="5.57" length="9.38" shape="329.09,295.89 330.48,293.37 330.45,291.56 329.01,290.48 326.14,290.12"/>
    </edge>
    <edge id=":B1_16" function="internal">
        <lane id=":B1_16_0" index="0" speed="11.42" length="22.79" shape="329.09,295.89 331.97,290.61 332.93,285.32 331.97,280.03 329.09,274.74"/>
        <lane id=":B1_16_1" index="1" speed="12.36" length="26.85" shape="331.68,297.77 335.07,291.55 336.20,285.32 335.07,279.09 331.68,272.86"/>
    </edge>
    <edge id=":B1_18" function="internal">
        <lane id=":B1_18_0" index="0" speed="13.89" length="23.77" shape="331.68,297.77 336.65,291.62 341.36,287.23 345.79,284.60 349.97,283.72"/>
    </edge>
    <edge id=":B1_19" function="internal">
        <lane id=":B1_19_0" index="0" speed="3.65" length="4.67" shape="331.68,297.77 333.03,297.27 333.91,297.42 334.32,298.21 334.27,299.66"/>
    </edge>
    <edge id=":B2_0" function="internal">
        <lane id=":B2_0_0" index="0" speed="12.18" length="17.81" shape="271.29,388.81 269.80,386.54 266.81,384.29 262.34,382.06 256.37,379.87"/>
    </edge>
    <edge id=":B2_1" function="internal">
        <lane id=":B2_1_0" index="0" speed="13.89" length="23.82" shape="271.29,388.81 263.92,366.16"/>
        <lane id=":B2_1_1" index="1" speed="13.89" length="23.82" shape="274.33,387.82 266.97,365.17"/>
    </edge>
    <edge id=":B2_3" function="internal">
        <lane id=":B2_3_0" index="0" speed="13.89" length="3.49" shape="274.33,387.82 273.96,384.35"/>
    </edge>
    <edge id=":B2_4" function="internal">
        <lane id=":B2_4_0" index="0" speed="3.65" length="1.44" shape="274.33,387.82 274.72,386.43"/>
    </edge>
    <edge id=":B2_20" function="internal">
        <lane id=":B2_20_0" index="0" speed="13.89" length="20.28" shape="273.96,384.35 273.88,383.58 275.01,378.55 277.73,372.71 282.05,366.08"/>
    </edge>
    <edge id=":B2_21" function="internal">
        <lane id=":B2_21_0" index="0" speed="3.65" length="3.23" shape="274.72,386.43 275.36,385.81 276.24,385.94 277.37,386.83"/>
    </edge>
    <edge id=":B2_5" function="internal">
        <lane id=":B2_5_0" index="0" speed="12.18" length="17.81" shape="287.22,369.85 283.69,375.13 281.37,379.56 280.28,383.13 280.42,385.84"/>
    </edge>
    <edge id=":B2_6" function="internal">
        <lane id=":B2_6_0" index="0" speed="13.89" length="34.96" shape="287.22,369.85 280.88,376.55 273.62,380.46 265.45,381.57 256.37,379.87"/>
        <lane id=":B2_6_1" index="1" speed="13.24" length="30.90" shape="284.64,367.97 279.02,373.90 272.61,377.35 265.39,378.33 257.36,376.83"/>
    </edge>
    <edge id=":B2_8" function="internal">
        <lane id=":B2_8_0" index="0" speed="8.82" length="25.88" shape="284.64,367.97 279.19,373.77 274.43,375.23 270.35,372.37 266.97,365.17"/>
    </edge>
    <edge id=":B2_9" function="internal">
        <lane id=":B2_9_0" index="0" speed="3.65" length="4.67" shape="284.64,367.97 283.28,368.47 282.40,368.32 281.99,367.53 282.05,366.08"/>
    </edge>
    <edge id=":B2_10" function="internal">
        <lane id=":B2_10_0" index="0" speed="5.57" length="9.38" shape="273.05,363.19 274.28,365.80 275.76,366.84 277.48,366.31 279.46,364.20"/>
    </edge>
    <edge id=":B2_11" function="internal">
        <lane id=":B2_11_0" index="0" speed="13.89" length="23.82" shape="273.05,363.19 280.42,385.84"/>
        <lane id=":B2_11_1" index="1" speed="13.89" length="23.82" shape="270.01,364.18 277.37,386.83"/>
    </edge>
    <edge id=":B2_13" function="internal">
        <lane id=":B2_13_0" index="0" speed="8.82" length="5.65" shape="270.01,364.18 271.07,369.73"/>
    </edge>
    <edge id=":B2_14" function="internal">
        <lane id=":B2_14_0" index="0" speed="3.65" length="1.44" shape="270.01,364.18 269.62,365.57"/>
    </edge>
    <edge id=":B2_22" function="internal">
        <lane id=":B2_22_0" index="0" speed="8.82" length="20.23" shape="271.07,369.73 271.50,371.99 269.89,376.71 265.18,378.32 257.36,376.83"/>
    </edge>
    <edge id=":B2_23" function="internal">
        <lane id=":B2_23_0" index="0" speed="3.65" length="3.23" shape="269.62,365.57 268.98,366.19 268.10,366.06 266.97,365.17"/>
    </edge>
    <edge id=":B2_15" function="internal">
        <lane id=":B2_15_0" index="0" speed="5.57" length="9.38" shape="259.34,370.74 262.17,371.28 263.88,370.70 264.47,368.99 263.92,366.16"/>
    </edge>
    <edge id=":B2_16" function="internal">
        <lane id=":B2_16_0" index="0" speed="11.42" length="22.79" shape="259.34,370.74 265.26,371.85 270.59,371.13 275.32,368.58 279.46,364.20"/>
        <lane id=":B2_16_1" index="1" speed="12.36" length="26.85" shape="258.35,373.78 265.32,375.09 271.60,374.24 277.17,371.24 282.05,366.08"/>
    </edge>
    <edge id=":B2_18" function="internal">
        <lane id=":B2_18_0" index="0" speed="13.89" length="23.77" shape="258.35,373.78 265.74,376.61 271.37,379.73 275.25,383.14 277.37,386.83"/>
    </edge>
    <edge id=":B2_19" function="internal">
        <lane id=":B2_19_0" index="0" speed="3.65" length="4.67" shape="258.35,373.78 259.25,374.92 259.38,375.80 258.75,376.44 257.36,376.83"/>
    </edge>
    <edge id=":B3_0" function="internal">
        <lane id=":B3_0_0" index="0" speed="12.18" length="17.81" shape="176.07,353.78 169.95,352.05 165.03,351.21 161.29,351.28 158.75,352.25"/>
    </edge>
    <edge id=":B3_1" function="internal">
        <lane id=":B3_1_0" index="0" speed="13.89" length="34.96" shape="176.07,353.78 167.73,349.81 161.77,344.12 158.20,336.69 157.00,327.53"/>
        <lane id=":B3_1_1" index="1" speed="13.24" length="30.90" shape="177.06,350.73 169.68,347.23 164.42,342.20 161.26,335.63 160.20,327.53"/>
    </edge>
    <edge id=":B3_3" function="internal">
        <lane id=":B3_3_0" index="0" speed="8.82" length="25.88" shape="177.06,350.73 169.86,347.35 166.99,343.27 168.46,338.51 174.26,333.07"/>
    </edge>
    <edge id=":B3_4" function="internal">
        <lane id=":B3_4_0" index="0" speed="3.65" length="4.67" shape="177.06,350.73 176.17,349.60 176.03,348.72 176.66,348.08 178.05,347.69"/>
    </edge>
    <edge id=":B3_5" function="internal">
        <lane id=":B3_5_0" index="0" speed="5.57" length="9.38" shape="178.02,338.24 175.92,340.22 175.39,341.94 176.43,343.42 179.04,344.65"/>
    </edge>
    <edge id=":B3_6" function="internal">
        <lane id=":B3_6_0" index="0" speed="13.89" length="23.82" shape="178.02,338.24 158.75,352.25"/>
        <lane id=":B3_6_1" index="1" speed="13.89" length="23.82" shape="176.14,335.66 156.87,349.66"/>
    </edge>
    <edge id=":B3_8" function="internal">
        <lane id=":B3_8_0" index="0" speed="8.82" length="5.65" shape="176.14,335.66 171.19,338.38"/>
    </edge>
    <edge id=":B3_9" function="internal">
        <lane id=":B3_9_0" index="0" speed="3.65" length="1.44" shape="176.14,335.66 174.70,335.71"/>
    </edge>
    <edge id=":B3_20" function="internal">
        <lane id=":B3_20_0" index="0" speed="8.82" length="20.23" shape="171.19,338.38 169.17,339.49 164.19,339.42 161.20,335.43 160.20,327.53"/>
    </edge>
    <edge id=":B3_21" function="internal">
        <lane id=":B3_21_0" index="0" speed="3.65" length="3.23" shape="174.70,335.71 173.91,335.30 173.76,334.42 174.26,333.07"/>
    </edge>
    <edge id=":B3_10" function="internal">
        <lane id=":B3_10_0" index="0" speed="5.57" length="9.38" shape="166.60,327.53 166.96,330.40 168.05,331.84 169.85,331.87 172.38,330.48"/>
    </edge>
    <edge id=":B3_11" function="internal">
        <lane id=":B3_11_0" index="0" speed="11.42" length="22.79" shape="166.60,327.53 167.38,333.51 169.71,338.35 173.60,342.06 179.04,344.65"/>
        <lane id=":B3_11_1" index="1" speed="12.36" length="26.85" shape="163.40,327.53 164.32,334.57 167.06,340.27 171.64,344.65 178.05,347.69"/>
    </edge>
    <edge id=":B3_13" function="internal">
        <lane id=":B3_13_0" index="0" speed="13.89" length="23.77" shape="163.40,327.53 163.00,335.43 161.77,341.75 159.73,346.49 156.87,349.66"/>
    </edge>
    <edge id=":B3_14" function="internal">
        <lane id=":B3_14_0" index="0" speed="3.65" length="4.67" shape="163.40,327.53 162.60,328.73 161.80,329.13 161.00,328.73 160.20,327.53"/>
    </edge>
    <edge id=":B3_15" function="internal">
        <lane id=":B3_15_0" index="0" speed="12.18" length="17.81" shape="153.11,344.48 154.81,342.36 156.03,338.83 156.76,333.89 157.00,327.53"/>
    </edge>
    <edge id=":B3_16" function="internal">
        <lane id=":B3_16_0" index="0" speed="13.89" length="23.82" shape="153.11,344.48 172.38,330.48"/>
        <lane id=":B3_16_1" index="1" speed="13.89" length="23.82" shape="154.99,347.07 174.26,333.07"/>
    </edge>
    <edge id=":B3_18" function="internal">
        <lane id=":B3_18_0" index="0" speed="13.89" length="3.49" shape="154.99,347.07 158.17,345.64"/>
    </edge>
    <edge id=":B3_19" function="internal">
        <lane id=":B3_19_0" index="0" speed="3.65" length="1.44" shape="154.99,347.07 156.43,347.01"/>
    </edge>
    <edge id=":B3_22" function="internal">
        <lane id=":B3_22_0" index="0" speed="13.89" length="20.28" shape="158.17,345.64 158.88,345.33 164.02,344.85 170.41,345.64 178.05,347.69"/>
    </edge>
    <edge id=":B3_23" function="internal">
        <lane id=":B3_23_0" index="0" speed="3.65" length="3.23" shape="156.43,347.01 157.22,347.42 157.37,348.31 156.87,349.66"/>
    </edge>
    <edge id=":B4_0" function="internal">
        <lane id=":B4_0_0" index="0" speed="12.18" length="17.81" shape="157.00,243.10 156.76,236.75 156.03,231.81 154.81,228.27 153.11,226.15"/>
    </edge>
    <edge id=":B4_1" function="internal">
        <lane id=":B4_1_0" index="0" speed="13.89" length="34.96" shape="157.00,243.10 158.20,233.94 161.77,226.51 167.73,220.82 176.07,216.86"/>
        <lane id=":B4_1_1" index="1" speed="13.24" length="30.90" shape="160.20,243.10 161.26,235.00 164.42,228.44 169.68,223.40 177.06,219.90"/>
    </edge>
    <edge id=":B4_3" function="internal">
        <lane id=":B4_3_0" index="0" speed="8.82" length="25.88" shape="160.20,243.10 161.20,235.20 164.19,231.22 169.17,231.14 176.14,234.98"/>
    </edge>
    <edge id=":B4_4" function="internal">
        <lane id=":B4_4_0" index="0" speed="3.65" length="4.67" shape="160.20,243.10 161.00,241.90 161.80,241.50 162.60,241.90 163.40,243.10"/>
    </edge>
    <edge id=":B4_5" function="internal">
        <lane id=":B4_5_0" index="0" speed="5.57" length="9.38" shape="172.38,240.16 169.85,238.77 168.05,238.79 166.96,240.24 166.60,243.10"/>
    </edge>
    <edge id=":B4_6" function="internal">
        <lane id=":B4_6_0" index="0" speed="13.89" length="23.82" shape="172.38,240.16 153.11,226.15"/>
        <lane id=":B4_6_1" index="1" speed="13.89" length="23.82" shape="174.26,237.57 154.99,223.56"/>
    </edge>
    <edge id=":B4_8" function="internal">
        <lane id=":B4_8_0" index="0" speed="8.82" length="5.65" shape="174.26,237.57 170.14,233.70"/>
    </edge>
    <edge id=":B4_9" function="internal">
        <lane id=":B4_9_0" index="0" speed="3.65" length="1.44" shape="174.26,237.57 173.76,236.21"/>
    </edge>
    <edge id=":B4_20" function="internal">
        <lane id=":B4_20_0" index="0" speed="8.82" length="20.23" shape="170.14,233.70 168.46,232.12 166.99,227.36 169.86,223.29 177.06,219.90"/>
    </edge>
    <edge id=":B4_21" function="internal">
        <lane id=":B4_21_0" index="0" speed="3.65" length="3.23" shape="173.76,236.21 173.91,235.33 174.70,234.92 176.14,234.98"/>
    </edge>
    <edge id=":B4_10" function="internal">
        <lane id=":B4_10_0" index="0" speed="5.57" length="9.38" shape="179.04,225.99 176.43,227.21 175.39,228.69 175.92,230.42 178.02,232.39"/>
    </edge>
    <edge id=":B4_11" function="internal">
        <lane id=":B4_11_0" index="0" speed="11.42" length="22.79" shape="179.04,225.99 173.60,228.57 169.71,232.28 167.38,237.13 166.60,243.10"/>
        <lane id=":B4_11_1" index="1" speed="12.36" length="26.85" shape="178.05,222.94 171.64,225.99 167.06,230.36 164.32,236.07 163.40,243.10"/>
    </edge>
    <edge id=":B4_13" function="internal">
        <lane id=":B4_13_0" index="0" speed="13.89" length="23.77" shape="178.05,222.94 170.41,225.00 164.02,225.78 158.88,225.31 154.99,223.56"/>
    </edge>
    <edge id=":B4_14" function="internal">
        <lane id=":B4_14_0" index="0" speed="3.65" length="4.67" shape="178.05,222.94 176.66,222.55 176.03,221.92 176.17,221.03 177.06,219.90"/>
    </edge>
    <edge id=":B4_15" function="internal">
        <lane id=":B4_15_0" index="0" speed="12.18" length="17.81" shape="158.75,218.39 161.29,219.35 165.03,219.42 169.95,218.59 176.07,216.86"/>
    </edge>
    <edge id=":B4_16" function="internal">
        <lane id=":B4_16_0" index="0" speed="13.89" length="23.82" shape="158.75,218.39 178.02,232.39"/>
        <lane id=":B4_16_1" index="1" speed="13.89" length="23.82" shape="156.87,220.98 176.14,234.98"/>
    </edge>
    <edge id=":B4_18" function="internal">
        <lane id=":B4_18_0" index="0" speed="13.89" length="3.49" shape="156.87,220.98 159.21,223.57"/>
    </edge>
    <edge id=":B4_19" function="internal">
        <lane id=":B4_19_0" index="0" speed="3.65" length="1.44" shape="156.87,220.98 157.37,222.33"/>
    </edge>
    <edge id=":B4_22" function="internal">
        <lane id=":B4_22_0" index="0" speed="13.89" length="20.28" shape="159.21,223.57 159.73,224.14 161.77,228.88 163.00,235.20 163.40,243.10"/>
    </edge>
    <edge id=":B4_23" function="internal">
        <lane id=":B4_23_0" index="0" speed="3.65" length="3.23" shape="157.37,222.33 157.22,223.21 156.43,223.62 154.99,223.56"/>
    </edge>
    <edge id=":B5_0" function="internal">
        <lane id=":B5_0_0" index="0" speed="5.57" length="9.38" shape="279.46,206.43 277.48,204.33 275.76,203.80 274.28,204.83 273.05,207.44"/>
    </edge>
    <edge id=":B5_1" function="internal">
        <lane id=":B5_1_0" index="0" speed="11.42" length="22.79" shape="279.46,206.43 275.32,202.06 270.59,199.51 265.26,198.79 259.34,199.89"/>
        <lane id=":B5_1_1" index="1" speed="12.36" length="26.85" shape="282.05,204.55 277.17,199.40 271.60,196.40 265.32,195.55 258.35,196.85"/>
    </edge>
    <edge id=":B5_3" function="internal">
        <lane id=":B5_3_0" index="0" speed="13.89" length="23.77" shape="282.05,204.55 277.73,197.92 275.01,192.09 273.88,187.05 274.33,182.81"/>
    </edge>
    <edge id=":B5_4" function="internal">
        <lane id=":B5_4_0" index="0" speed="3.65" length="4.67" shape="282.05,204.55 281.99,203.11 282.40,202.31 283.28,202.17 284.64,202.67"/>
    </edge>
    <edge id=":B5_5" function="internal">
        <lane id=":B5_5_0" index="0" speed="12.18" length="17.81" shape="280.42,184.79 280.28,187.51 281.37,191.08 283.69,195.51 287.22,200.79"/>
    </edge>
    <edge id=":B5_6" function="internal">
        <lane id=":B5_6_0" index="0" speed="13.89" length="23.82" shape="280.42,184.79 273.05,207.44"/>
        <lane id=":B5_6_1" index="1" speed="13.89" length="23.82" shape="277.37,183.80 270.01,206.46"/>
    </edge>
    <edge id=":B5_8" function="internal">
        <lane id=":B5_8_0" index="0" speed="13.89" length="3.49" shape="277.37,183.80 275.63,186.83"/>
    </edge>
    <edge id=":B5_9" function="internal">
        <lane id=":B5_9_0" index="0" speed="3.65" length="1.44" shape="277.37,183.80 276.24,184.69"/>
    </edge>
    <edge id=":B5_20" function="internal">
        <lane id=":B5_20_0" index="0" speed="13.89" length="20.28" shape="275.63,186.83 275.25,187.50 271.37,190.90 265.74,194.02 258.35,196.85"/>
    </edge>
    <edge id=":B5_21" function="internal">
        <lane id=":B5_21_0" index="0" speed="3.65" length="3.23" shape="276.24,184.69 275.36,184.83 274.72,184.20 274.33,182.81"/>
    </edge>
    <edge id=":B5_10" function="internal">
        <lane id=":B5_10_0" index="0" speed="12.18" length="17.81" shape="256.37,190.76 262.34,188.57 266.81,186.35 269.80,184.10 271.29,181.82"/>
    </edge>
    <edge id=":B5_11" function="internal">
        <lane id=":B5_11_0" index="0" speed="13.89" length="34.96" shape="256.37,190.76 265.45,189.07 273.62,190.17 280.88,194.08 287.22,200.79"/>
        <lane id=":B5_11_1" index="1" speed="13.24" length="30.90" shape="257.36,193.81 265.39,192.31 272.61,193.28 279.02,196.74 284.64,202.67"/>
    </edge>
    <edge id=":B5_13" function="internal">
        <lane id=":B5_13_0" index="0" speed="8.82" length="25.88" shape="257.36,193.81 265.18,192.31 269.89,193.93 271.50,198.64 270.01,206.46"/>
    </edge>
    <edge id=":B5_14" function="internal">
        <lane id=":B5_14_0" index="0" speed="3.65" length="4.67" shape="257.36,193.81 258.75,194.20 259.38,194.83 259.25,195.72 258.35,196.85"/>
    </edge>
    <edge id=":B5_15" function="internal">
        <lane id=":B5_15_0" index="0" speed="5.57" length="9.38" shape="263.92,204.48 264.47,201.65 263.88,199.94 262.17,199.35 259.34,199.89"/>
    </edge>
    <edge id=":B5_16" function="internal">
        <lane id=":B5_16_0" index="0" speed="13.89" length="23.82" shape="263.92,204.48 271.29,181.82"/>
        <lane id=":B5_16_1" index="1" speed="13.89" length="23.82" shape="266.97,205.47 274.33,182.81"/>
    </edge>
    <edge id=":B5_18" function="internal">
        <lane id=":B5_18_0" index="0" speed="8.82" length="5.65" shape="266.97,205.47 269.37,200.36"/>
    </edge>
    <edge id=":B5_19" function="internal">
        <lane id=":B5_19_0" index="0" speed="3.65" length="1.44" shape="266.97,205.47 268.10,204.57"/>
    </edge>
    <edge id=":B5_22" function="internal">
        <lane id=":B5_22_0" index="0" speed="8.82" length="20.23" shape="269.37,200.36 270.35,198.27 274.43,195.40 279.19,196.87 284.64,202.67"/>
    </edge>
    <edge id=":B5_23" function="internal">
        <lane id=":B5_23_0" index="0" speed="3.65" length="3.23" shape="268.10,204.57 268.98,204.44 269.62,205.07 270.01,206.46"/>
    </edge>
    <edge id=":C1_0" function="internal">
        <lane id=":C1_0_0" index="0" speed="12.18" length="17.81" shape="449.97,290.12 447.34,290.83 444.28,292.97 440.78,296.54 436.85,301.54"/>
    </edge>
    <edge id=":C1_1" function="internal">
        <lane id=":C1_1_0" index="0" speed="13.89" length="23.82" shape="449.97,290.12 426.14,290.12"/>
        <lane id=":C1_1_1" index="1" speed="13.89" length="23.82" shape="449.97,286.92 426.14,286.92"/>
    </edge>
    <edge id=":C1_3" function="internal">
        <lane id=":C1_3_0" index="0" speed="13.89" length="3.49" shape="449.97,286.92 446.55,286.20"/>
    </edge>
    <edge id=":C1_4" function="internal">
        <lane id=":C1_4_0" index="0" speed="3.65" length="1.44" shape="449.97,286.92 448.77,286.12"/>
    </edge>
    <edge id=":C1_20" function="internal">
        <lane id=":C1_20_0" index="0" speed="13.89" length="20.28" shape="446.55,286.20 445.79,286.04 441.36,283.40 436.65,279.01 431.68,272.86"/>
    </edge>
    <edge id=":C1_21" function="internal">
        <lane id=":C1_21_0" index="0" speed="3.65" length="3.23" shape="448.77,286.12 448.37,285.32 448.77,284.52 449.97,283.72"/>
    </edge>
    <edge id=":C1_5" function="internal">