<?xml version="1.0" encoding="UTF-8"?>

<!-- generated on 2025-04-27 19:37:24 by Eclipse SUMO netconvert Version 1.22.0
<netconvertConfiguration xmlns:xsi="http://www.w3.org/2001/XMLSchema-instance" xsi:noNamespaceSchemaLocation="http://sumo.dlr.de/xsd/netconvertConfiguration.xsd">

    <input>
        <sumo-net-file value="curriculum_scenarios\spider_5arms_2lane\spider_5arms_2lane_base.net.xml"/>
    </input>

    <output>
        <output-file value="curriculum_scenarios\spider_5arms_2lane\spider_5arms_2lane.net.xml"/>
    </output>

    <processing>
        <geometry.min-radius.fix.railways value="false"/>
        <geometry.max-grade.fix value="false"/>
        <offset.disable-normalization value="true"/>
        <lefthand value="0"/>
    </processing>

    <tls_building>
        <tls.guess value="true"/>
        <tls.guess.threshold value="1"/>
        <tls.green.time value="30"/>
        <tls.yellow.time value="4"/>
        <tls.red.time value="1"/>
    </tls_building>

    <junctions>
        <no-turnarounds value="true"/>
        <junctions.corner-detail value="5"/>
        <junctions.limit-turn-speed value="5.50"/>
        <rectangular-lane-cut value="0"/>
    </junctions>

    <pedestrian>
        <walkingareas value="0"/>
    </pedestrian>

</netconvertConfiguration>
-->

<net version="1.20" junctionCornerDetail="5" limitTurnSpeed="5.50" xmlns:xsi="http://www.w3.org/2001/XMLSchema-instance" xsi:noNamespaceSchemaLocation="http://sumo.dlr.de/xsd/net_file.xsd">

    <location netOffset="242.71,285.32" convBoundary="0.00,0.00,542.71,570.63" origBoundary="-242.71,-285.32,300.00,285.32" projParameter="!"/>

    <edge id=":A1_0" function="internal">
        <lane id=":A1_0_0" index="0" speed="5.93" length="9.10" shape="242.10,298.99 240.95,296.63 239.41,295.47 237.48,295.51 235.17,296.73"/>
    </edge>
    <edge id=":A1_1" function="internal">
        <lane id=":A1_1_0" index="0" speed="13.89" length="21.96" shape="242.10,298.99 239.97,293.09 237.69,288.97 234.47,285.52 229.53,281.67"/>
        <lane id=":A1_1_1" index="1" speed="13.89" length="23.91" shape="245.15,298.00 242.83,291.86 240.15,287.18 236.53,283.18 231.41,279.09"/>
    </edge>
    <edge id=":A1_3" function="internal">
        <lane id=":A1_3_0" index="0" speed="13.89" length="26.44" shape="245.15,298.00 242.93,291.21 241.31,284.83 240.84,278.45 242.10,271.65"/>
        <lane id=":A1_3_1" index="1" speed="13.89" length="26.44" shape="245.15,298.00 243.41,291.36 242.83,285.32 243.41,279.28 245.15,272.64"/>
    </edge>
    <edge id=":A1_5" function="internal">
        <lane id=":A1_5_0" index="0" speed="8.89" length="6.34" shape="245.15,298.00 244.06,291.75"/>
    </edge>
    <edge id=":A1_6" function="internal">
        <lane id=":A1_6_0" index="0" speed="3.65" length="1.44" shape="245.15,298.00 245.54,296.61"/>
    </edge>
    <edge id=":A1_35" function="internal">
        <lane id=":A1_35_0" index="0" speed="8.89" length="15.67" shape="244.06,291.75 245.42,287.29 249.24,284.61 255.52,283.72"/>
    </edge>
    <edge id=":A1_36" function="internal">
        <lane id=":A1_36_0" index="0" speed="3.65" length="3.23" shape="245.54,296.61 246.17,295.98 247.06,296.11 248.19,297.01"/>
    </edge>
    <edge id=":A1_7" function="internal">
        <lane id=":A1_7_0" index="0" speed="5.93" length="9.09" shape="255.52,290.12 252.93,290.49 251.35,291.59 250.78,293.44 251.23,296.02"/>
    </edge>
    <edge id=":A1_8" function="internal">
        <lane id=":A1_8_0" index="0" speed="13.89" length="21.96" shape="255.52,290.12 249.26,290.33 244.63,291.22 240.35,293.22 235.17,296.73"/>
        <lane id=":A1_8_1" index="1" speed="13.89" length="23.91" shape="255.52,286.92 248.96,287.22 243.69,288.33 238.77,290.54 233.29,294.14"/>
    </edge>
    <edge id=":A1_10" function="internal">
        <lane id=":A1_10_0" index="0" speed="13.89" length="26.44" shape="255.52,286.92 248.38,286.93 241.81,286.50 235.59,284.97 229.53,281.67"/>
        <lane id=":A1_10_1" index="1" speed="13.89" length="26.44" shape="255.52,286.92 248.67,286.52 242.75,285.21 237.18,282.79 231.41,279.09"/>
    </edge>
    <edge id=":A1_12" function="internal">
        <lane id=":A1_12_0" index="0" speed="8.89" length="3.60" shape="255.52,286.92 251.95,286.41"/>
    </edge>
    <edge id=":A1_13" function="internal">
        <lane id=":A1_13_0" index="0" speed="3.65" length="1.44" shape="255.52,286.92 254.32,286.12"/>
    </edge>
    <edge id=":A1_37" function="internal">
        <lane id=":A1_37_0" index="0" speed="8.89" length="18.41" shape="251.95,286.41 249.24,286.03 245.42,283.35 244.06,278.89 245.15,272.64"/>
    </edge>
    <edge id=":A1_38" function="internal">
        <lane id=":A1_38_0" index="0" speed="3.65" length="3.23" shape="254.32,286.12 253.92,285.32 254.32,284.52 255.52,283.72"/>
    </edge>
    <edge id=":A1_14" function="internal">
        <lane id=":A1_14_0" index="0" speed="5.93" length="9.10" shape="251.23,274.62 250.78,277.20 251.35,279.05 252.93,280.15 255.52,280.52"/>
    </edge>
    <edge id=":A1_15" function="internal">
        <lane id=":A1_15_0" index="0" speed="13.89" length="21.96" shape="251.23,274.62 249.49,280.64 248.92,285.32 249.49,290.00 251.23,296.02"/>
        <lane id=":A1_15_1" index="1" speed="13.89" length="23.91" shape="248.19,273.63 246.45,279.96 245.87,285.32 246.45,290.68 248.19,297.01"/>
    </edge>
    <edge id=":A1_17" function="internal">
        <lane id=":A1_17_0" index="0" speed="13.89" length="26.44" shape="248.19,273.63 245.99,280.43 243.55,286.54 240.18,291.98 235.17,296.73"/>
        <lane id=":A1_17_1" index="1" speed="13.89" length="26.44" shape="248.19,273.63 245.70,280.02 242.61,285.25 238.59,289.80 233.29,294.14"/>
    </edge>
    <edge id=":A1_19" function="internal">
        <lane id=":A1_19_0" index="0" speed="8.89" length="3.60" shape="248.19,273.63 246.61,276.87"/>
    </edge>
    <edge id=":A1_20" function="internal">
        <lane id=":A1_20_0" index="0" speed="3.65" length="1.44" shape="248.19,273.63 247.06,274.53"/>
    </edge>
    <edge id=":A1_39" function="internal">
        <lane id=":A1_39_0" index="0" speed="8.89" length="18.41" shape="246.61,276.87 245.40,279.33 241.67,282.13 237.01,282.05 231.41,279.09"/>
    </edge>
    <edge id=":A1_40" function="internal">
        <lane id=":A1_40_0" index="0" speed="3.65" length="3.23" shape="247.06,274.53 246.17,274.66 245.54,274.03 245.15,272.64"/>
    </edge>
    <edge id=":A1_21" function="internal">
        <lane id=":A1_21_0" index="0" speed="5.93" length="9.10" shape="235.17,273.91 237.48,275.13 239.41,275.17 240.95,274.01 242.10,271.65"/>
    </edge>
    <edge id=":A1_22" function="internal">
        <lane id=":A1_22_0" index="0" speed="13.89" length="21.96" shape="235.17,273.91 240.35,277.42 244.63,279.42 249.26,280.31 255.52,280.52"/>
        <lane id=":A1_22_1" index="1" speed="13.89" length="23.91" shape="233.29,276.50 238.77,280.10 243.69,282.31 248.96,283.42 255.52,283.72"/>
    </edge>
    <edge id=":A1_24" function="internal">
        <lane id=":A1_24_0" index="0" speed="13.89" length="26.44" shape="233.29,276.50 239.07,280.69 244.14,284.90 248.26,289.78 251.23,296.02"/>
        <lane id=":A1_24_1" index="1" speed="13.89" length="26.44" shape="233.29,276.50 238.59,280.84 242.61,285.39 245.70,290.62 248.19,297.01"/>
    </edge>
    <edge id=":A1_26" function="internal">
        <lane id=":A1_26_0" index="0" speed="8.89" length="22.01" shape="233.29,276.50 237.84,280.91 239.36,285.32 237.84,289.73 233.29,294.14"/>
    </edge>
    <edge id=":A1_27" function="internal">
        <lane id=":A1_27_0" index="0" speed="3.65" length="2.34" shape="233.29,276.50 233.79,277.85 233.64,278.73"/>
    </edge>
    <edge id=":A1_41" function="internal">
        <lane id=":A1_41_0" index="0" speed="3.65" length="2.34" shape="233.64,278.73 232.85,279.14 231.41,279.09"/>
    </edge>
    <edge id=":A1_28" function="internal">
        <lane id=":A1_28_0" index="0" speed="5.93" length="9.09" shape="229.53,288.97 231.41,287.14 232.03,285.32 231.41,283.50 229.53,281.67"/>
    </edge>
    <edge id=":A1_29" function="internal">
        <lane id=":A1_29_0" index="0" speed="13.89" length="21.96" shape="229.53,288.97 234.47,285.12 237.69,281.67 239.97,277.55 242.10,271.65"/>
        <lane id=":A1_29_1" index="1" speed="13.89" length="23.91" shape="231.41,291.55 236.53,287.46 240.15,283.46 242.83,278.78 245.15,272.64"/>
    </edge>
    <edge id=":A1_31" function="internal">
        <lane id=":A1_31_0" index="0" speed="13.89" length="26.44" shape="231.41,291.55 237.18,287.35 242.75,283.83 248.67,281.42 255.52,280.52"/>
        <lane id=":A1_31_1" index="1" speed="13.89" length="26.44" shape="231.41,291.55 237.18,287.85 242.75,285.43 248.67,284.12 255.52,283.72"/>
    </edge>
    <edge id=":A1_33" function="internal">
        <lane id=":A1_33_0" index="0" speed="8.89" length="6.34" shape="231.41,291.55 237.01,288.59"/>
    </edge>
    <edge id=":A1_34" function="internal">
        <lane id=":A1_34_0" index="0" speed="3.65" length="1.44" shape="231.41,291.55 232.85,291.50"/>
    </edge>
    <edge id=":A1_42" function="internal">
        <lane id=":A1_42_0" index="0" speed="8.89" length="15.67" shape="237.01,288.59 241.67,288.51 245.40,291.31 248.19,297.01"/>
    </edge>
    <edge id=":A1_43" function="internal">
        <lane id=":A1_43_0" index="0" speed="3.65" length="3.23" shape="232.85,291.50 233.64,291.91 233.79,292.79 233.29,294.14"/>
    </edge>
    <edge id=":B1_0" function="internal">
        <lane id=":B1_0_0" index="0" speed="12.18" length="17.81" shape="349.97,290.12 347.35,290.83 344.29,292.97 340.79,296.54 336.86,301.54"/>
    </edge>
    <edge id=":B1_1" function="internal">
        <lane id=":B1_1_0" index="0" speed="13.89" length="23.82" shape="349.97,290.12 326.15,290.12"/>
        <lane id=":B1_1_1" index="1" speed="13.89" length="23.82" shape="349.97,286.92 326.15,286.92"/>
    </edge>
    <edge id=":B1_3" function="internal">
        <lane id=":B1_3_0" index="0" speed="13.89" length="3.49" shape="349.97,286.92 346.56,286.20"/>
    </edge>
    <edge id=":B1_4" function="internal">
        <lane id=":B1_4_0" index="0" speed="3.65" length="1.44" shape="349.97,286.92 348.77,286.12"/>
    </edge>
    <edge id=":B1_20" function="internal">
        <lane id=":B1_20_0" index="0" speed="13.89" length="20.28" shape="346.56,286.20 345.80,286.04 341.36,283.41 336.65,279.01 331.68,272.86"/>
    </edge>
    <edge id=":B1_21" function="internal">
        <lane id=":B1_21_0" index="0" speed="3.65" length="3.23" shape="348.77,286.12 348.37,285.32 348.77,284.52 349.97,283.72"/>
    </edge>
    <edge id=":B1_5" function="internal">
        <lane id=":B1_5_0" index="0" speed="12.18" length="17.81" shape="336.86,269.10 340.79,274.10 344.29,277.67 347.35,279.81 349.97,280.52"/>
    </edge>
    <edge id=":B1_6" function="internal">
        <lane id=":B1_6_0" index="0" speed="13.89" length="34.96" shape="336.86,269.10 341.28,277.21 342.75,285.32 341.28,293.43 336.86,301.54"/>
        <lane id=":B1_6_1" index="1" speed="13.24" length="30.90" shape="334.27,270.98 338.18,278.15 339.48,285.32 338.18,292.49 334.27,299.66"/>
    </edge>
    <edge id=":B1_8" function="internal">
        <lane id=":B1_8_0" index="0" speed="8.82" length="11.10" shape="334.27,270.98 338.11,277.95 338.06,281.10"/>
    </edge>
    <edge id=":B1_9" function="internal">
        <lane id=":B1_9_0" index="0" speed="3.65" length="1.44" shape="334.27,270.98 334.33,272.42"/>
    </edge>
    <edge id=":B1_22" function="internal">
        <lane id=":B1_22_0" index="0" speed="8.82" length="14.78" shape="338.06,281.10 338.03,282.94 334.04,285.92 326.15,286.92"/>
    </edge>
    <edge id=":B1_23" function="internal">
        <lane id=":B1_23_0" index="0" speed="3.65" length="3.23" shape="334.33,272.42 333.92,273.22 333.03,273.36 331.68,272.86"/>
    </edge>
    <edge id=":B1_10" function="internal">
        <lane id=":B1_10_0" index="0" speed="5.57" length="9.38" shape="326.15,280.52 329.01,280.16 330.46,279.08 330.48,277.27 329.09,274.74"/>
    </edge>
    <edge id=":B1_11" function="internal">
        <lane id=":B1_11_0" index="0" speed="13.89" length="23.82" shape="326.15,280.52 349.97,280.52"/>
        <lane id=":B1_11_1" index="1" speed="13.89" length="23.82" shape="326.15,283.72 349.97,283.72"/>
    </edge>
    <edge id=":B1_13" function="internal">
        <lane id=":B1_13_0" index="0" speed="8.82" length="5.65" shape="326.15,283.72 331.75,284.43"/>
    </edge>
    <edge id=":B1_14" function="internal">
        <lane id=":B1_14_0" index="0" speed="3.65" length="1.44" shape="326.15,283.72 327.35,284.52"/>
    </edge>
    <edge id=":B1_24" function="internal">
        <lane id=":B1_24_0" index="0" speed="8.82" length="20.23" shape="331.75,284.43 334.04,284.72 338.03,287.70 338.10,292.69 334.27,299.66"/>
    </edge>
    <edge id=":B1_25" function="internal">
        <lane id=":B1_25_0" index="0" speed="3.65" length="3.23" shape="327.35,284.52 327.75,285.32 327.35,286.12 326.15,286.92"/>
    </edge>
    <edge id=":B1_15" function="internal">
        <lane id=":B1_15_0" index="0" speed="5.57" length="9.38" shape="329.09,295.90 330.48,293.37 330.45,291.56 329.01,290.48 326.15,290.12"/>
    </edge>
    <edge id=":B1_16" function="internal">
        <lane id=":B1_16_0" index="0" speed="11.42" length="22.79" shape="329.09,295.90 331.97,290.61 332.93,285.32 331.97,280.03 329.09,274.74"/>
        <lane id=":B1_16_1" index="1" speed="12.36" length="26.85" shape="331.68,297.78 335.08,291.55 336.21,285.32 335.08,279.09 331.68,272.86"/>
    </edge>
    <edge id=":B1_18" function="internal">
        <lane id=":B1_18_0" index="0" speed="13.89" length="3.82" shape="331.68,297.78 334.08,294.81"/>
    </edge>
    <edge id=":B1_19" function="internal">
        <lane id=":B1_19_0" index="0" speed="3.65" length="1.31" shape="331.68,297.78 332.91,297.32"/>
    </edge>
    <edge id=":B1_26" function="internal">
        <lane id=":B1_26_0" index="0" speed="13.89" length="19.95" shape="334.08,294.81 336.65,291.63 341.36,287.23 345.80,284.60 349.97,283.72"/>
    </edge>
    <edge id=":B1_27" function="internal">
        <lane id=":B1_27_0" index="0" speed="3.65" length="3.36" shape="332.91,297.32 333.03,297.28 333.92,297.42 334.33,298.22 334.27,299.66"/>
    </edge>
    <edge id=":B2_0" function="internal">
        <lane id=":B2_0_0" index="0" speed="12.18" length="17.81" shape="271.29,388.81 269.80,386.53 266.82,384.28 262.34,382.06 256.38,379.87"/>
    </edge>
    <edge id=":B2_1" function="internal">
        <lane id=":B2_1_0" index="0" speed="13.89" length="23.82" shape="271.29,388.81 263.93,366.15"/>
        <lane id=":B2_1_1" index="1" speed="13.89" length="23.82" shape="274.33,387.82 266.97,365.16"/>
    </edge>
    <edge id=":B2_3" function="internal">
        <lane id=":B2_3_0" index="0" speed="13.89" length="3.49" shape="274.33,387.82 273.96,384.35"/>
    </edge>
    <edge id=":B2_4" function="internal">
        <lane id=":B2_4_0" index="0" speed="3.65" length="1.44" shape="274.33,387.82 274.72,386.43"/>
    </edge>
    <edge id=":B2_20" function="internal">
        <lane id=":B2_20_0" index="0" speed="13.89" length="20.28" shape="273.96,384.35 273.88,383.58 275.01,378.55 277.74,372.71 282.05,366.08"/>
    </edge>
    <edge id=":B2_21" function="internal">
        <lane id=":B2_21_0" index="0" speed="3.65" length="3.23" shape="274.72,386.43 275.36,385.80 276.24,385.94 277.38,386.83"/>
    </edge>
    <edge id=":B2_5" function="internal">
        <lane id=":B2_5_0" index="0" speed="12.18" length="17.81" shape="287.23,369.84 283.69,375.13 281.38,379.55 280.29,383.13 280.42,385.84"/>
    </edge>
    <edge id=":B2_6" function="internal">
        <lane id=":B2_6_0" index="0" speed="13.89" length="34.95" shape="287.23,369.84 280.88,376.55 273.62,380.46 265.46,381.57 256.38,379.87"/>
        <lane id=":B2_6_1" index="1" speed="13.24" length="30.90" shape="284.64,367.96 279.03,373.89 272.61,377.35 265.39,378.32 257.37,376.83"/>
    </edge>
    <edge id=":B2_8" function="internal">
        <lane id=":B2_8_0" index="0" speed="8.82" length="11.10" shape="284.64,367.96 279.19,373.77 276.19,374.69"/>
    </edge>
    <edge id=":B2_9" function="internal">
        <lane id=":B2_9_0" index="0" speed="3.65" length="1.44" shape="284.64,367.96 283.29,368.46"/>
    </edge>
    <edge id=":B2_22" function="internal">
        <lane id=":B2_22_0" index="0" speed="8.82" length="14.78" shape="276.19,374.69 274.43,375.23 270.36,372.37 266.97,365.16"/>
    </edge>
    <edge id=":B2_23" function="internal">
        <lane id=":B2_23_0" index="0" speed="3.65" length="3.23" shape="283.29,368.46 282.40,368.32 281.99,367.52 282.05,366.08"/>
    </edge>
    <edge id=":B2_10" function="internal">
        <lane id=":B2_10_0" index="0" speed="5.57" length="9.38" shape="273.06,363.19 274.29,365.80 275.76,366.84 277.49,366.30 279.46,364.20"/>
    </edge>
    <edge id=":B2_11" function="internal">
        <lane id=":B2_11_0" index="0" speed="13.89" length="23.82" shape="273.06,363.19 280.42,385.84"/>
        <lane id=":B2_11_1" index="1" speed="13.89" length="23.82" shape="270.01,364.18 277.38,386.83"/>
    </edge>
    <edge id=":B2_13" function="internal">
        <lane id=":B2_13_0" index="0" speed="8.82" length="5.65" shape="270.01,364.18 271.07,369.72"/>
    </edge>
    <edge id=":B2_14" function="internal">
        <lane id=":B2_14_0" index="0" speed="3.65" length="1.44" shape="270.01,364.18 269.62,365.56"/>
    </edge>
    <edge id=":B2_24" function="internal">
        <lane id=":B2_24_0" index="0" speed="8.82" length="20.23" shape="271.07,369.72 271.51,371.99 269.90,376.71 265.18,378.32 257.37,376.83"/>
    </edge>
    <edge id=":B2_25" function="internal">
        <lane id=":B2_25_0" index="0" speed="3.65" length="3.23" shape="269.62,365.56 268.99,366.19 268.10,366.06 266.97,365.16"/>
    </edge>
    <edge id=":B2_15" function="internal">
        <lane id=":B2_15_0" index="0" speed="5.57" length="9.38" shape="259.34,370.74 262.18,371.28 263.88,370.70 264.47,368.99 263.93,366.15"/>
    </edge>
    <edge id=":B2_16" function="internal">
        <lane id=":B2_16_0" index="0" speed="11.42" length="22.79" shape="259.34,370.74 265.26,371.84 270.59,371.12 275.32,368.58 279.46,364.20"/>
        <lane id=":B2_16_1" index="1" speed="12.36" length="26.85" shape="258.35,373.78 265.33,375.08 271.60,374.24 277.17,371.23 282.05,366.08"/>
    </edge>
    <edge id=":B2_18" function="internal">
        <lane id=":B2_18_0" index="0" speed="13.89" length="3.82" shape="258.35,373.78 261.92,375.15"/>
    </edge>
    <edge id=":B2_19" function="internal">
        <lane id=":B2_19_0" index="0" speed="3.65" length="1.31" shape="258.35,373.78 259.17,374.81"/>
    </edge>
    <edge id=":B2_26" function="internal">
        <lane id=":B2_26_0" index="0" speed="13.89" length="19.95" shape="261.92,375.15 265.74,376.61 271.37,379.73 275.25,383.14 277.38,386.83"/>
    </edge>
    <edge id=":B2_27" function="internal">
        <lane id=":B2_27_0" index="0" speed="3.65" length="3.36" shape="259.17,374.81 259.25,374.91 259.38,375.80 258.75,376.44 257.37,376.83"/>
    </edge>
    <edge id=":B3_0" function="internal">
        <lane id=":B3_0_0" index="0" speed="12.18" length="17.81" shape="176.07,353.78 169.95,352.05 165.03,351.22 161.29,351.29 158.75,352.25"/>
    </edge>
    <edge id=":B3_1" function="internal">
        <lane id=":B3_1_0" index="0" speed="13.89" length="34.96" shape="176.07,353.78 167.73,349.82 161.77,344.12 158.19,336.70 157.00,327.54"/>
        <lane id=":B3_1_1" index="1" speed="13.24" length="30.90" shape="177.06,350.74 169.68,347.24 164.41,342.20 161.25,335.64 160.20,327.54"/>
    </edge>
    <edge id=":B3_3" function="internal">
        <lane id=":B3_3_0" index="0" speed="8.82" length="11.10" shape="177.06,350.74 169.86,347.35 168.05,344.78"/>
    </edge>
    <edge id=":B3_4" function="internal">
        <lane id=":B3_4_0" index="0" speed="3.65" length="1.44" shape="177.06,350.74 176.16,349.61"/>
    </edge>
    <edge id=":B3_20" function="internal">
        <lane id=":B3_20_0" index="0" speed="8.82" length="14.78" shape="168.05,344.78 166.99,343.28 168.46,338.52 174.26,333.07"/>
    </edge>
    <edge id=":B3_21" function="internal">
        <lane id=":B3_21_0" index="0" speed="3.65" length="3.23" shape="176.16,349.61 176.03,348.72 176.66,348.09 178.05,347.70"/>
    </edge>
    <edge id=":B3_5" function="internal">
        <lane id=":B3_5_0" index="0" speed="5.57" length="9.38" shape="178.02,338.25 175.92,340.22 175.39,341.95 176.43,343.42 179.04,344.65"/>
    </edge>
    <edge id=":B3_6" function="internal">
        <lane id=":B3_6_0" index="0" speed="13.89" length="23.82" shape="178.02,338.25 158.75,352.25"/>
        <lane id=":B3_6_1" index="1" speed="13.89" length="23.82" shape="176.14,335.66 156.87,349.66"/>
    </edge>
    <edge id=":B3_8" function="internal">
        <lane id=":B3_8_0" index="0" speed="8.82" length="5.65" shape="176.14,335.66 171.19,338.38"/>
    </edge>
    <edge id=":B3_9" function="internal">
        <lane id=":B3_9_0" index="0" speed="3.65" length="1.44" shape="176.14,335.66 174.70,335.72"/>
    </edge>
    <edge id=":B3_22" function="internal">
        <lane id=":B3_22_0" index="0" speed="8.82" length="20.23" shape="171.19,338.38 169.17,339.49 164.19,339.42 161.20,335.43 160.20,327.54"/>
    </edge>
    <edge id=":B3_23" function="internal">
        <lane id=":B3_23_0" index="0" speed="3.65" length="3.23" shape="174.70,335.72 173.91,335.31 173.76,334.42 174.26,333.07"/>
    </edge>
    <edge id=":B3_10" function="internal">
        <lane id=":B3_10_0" index="0" speed="5.57" length="9.38" shape="166.60,327.54 166.96,330.40 168.04,331.85 169.85,331.87 172.38,330.48"/>
    </edge>
    <edge id=":B3_11" function="internal">
        <lane id=":B3_11_0" index="0" speed="11.42" length="22.79" shape="166.60,327.54 167.38,333.51 169.71,338.35 173.59,342.07 179.04,344.65"/>
        <lane id=":B3_11_1" index="1" speed="12.36" length="26.85" shape="163.40,327.54 164.32,334.57 167.06,340.28 171.64,344.65 178.05,347.70"/>
    </edge>
    <edge id=":B3_13" function="internal">
        <lane id=":B3_13_0" index="0" speed="13.89" length="3.82" shape="163.40,327.54 163.20,331.35"/>
    </edge>
    <edge id=":B3_14" function="internal">
        <lane id=":B3_14_0" index="0" speed="3.65" length="1.31" shape="163.40,327.54 162.67,328.63"/>
    </edge>
    <edge id=":B3_24" function="internal">
        <lane id=":B3_24_0" index="0" speed="13.89" length="19.95" shape="163.20,331.35 162.99,335.44 161.77,341.76 159.72,346.50 156.87,349.66"/>
    </edge>
    <edge id=":B3_25" function="internal">
        <lane id=":B3_25_0" index="0" speed="3.65" length="3.36" shape="162.67,328.63 162.60,328.74 161.80,329.14 161.00,328.74 160.20,327.54"/>
    </edge>
    <edge id=":B3_15" function="internal">
        <lane id=":B3_15_0" index="0" speed="12.18" length="17.81" shape="153.10,344.48 154.81,342.36 156.03,338.83 156.76,333.89 157.00,327.54"/>
    </edge>
    <edge id=":B3_16" function="internal">
        <lane id=":B3_16_0" index="0" speed="13.89" length="23.82" shape="153.10,344.48 172.38,330.48"/>
        <lane id=":B3_16_1" index="1" speed="13.89" length="23.82" shape="154.98,347.07 174.26,333.07"/>
    </edge>
    <edge id=":B3_18" function="internal">
        <lane id=":B3_18_0" index="0" speed="13.89" length="3.49" shape="154.98,347.07 158.17,345.65"/>
    </edge>
    <edge id=":B3_19" function="internal">
        <lane id=":B3_19_0" index="0" speed="3.65" length="1.44" shape="154.98,347.07 156.43,347.02"/>
    </edge>
    <edge id=":B3_26" function="internal">
        <lane id=":B3_26_0" index="0" speed="13.89" length="20.28" shape="158.17,345.65 158.88,345.33 164.02,344.86 170.41,345.64 178.05,347.70"/>
    </edge>
    <edge id=":B3_27" function="internal">
        <lane id=":B3_27_0" index="0" speed="3.65" length="3.23" shape="156.43,347.02 157.22,347.43 157.37,348.31 156.87,349.66"/>
    </edge>
    <edge id=":B4_0" function="internal">
        <lane id=":B4_0_0" index="0" speed="12.18" length="17.81" shape="157.00,243.10 156.76,236.75 156.03,231.81 154.81,228.28 153.10,226.16"/>
    </edge>
    <edge id=":B4_1" function="internal">
        <lane id=":B4_1_0" index="0" speed="13.89" length="34.96" shape="157.00,243.10 158.19,233.94 161.77,226.52 167.73,220.82 176.07,216.86"/>
        <lane id=":B4_1_1" index="1" speed="13.24" length="30.90" shape="160.20,243.10 161.25,235.00 164.41,228.44 169.68,223.40 177.06,219.90"/>
    </edge>
    <edge id=":B4_3" function="internal">
        <lane id=":B4_3_0" index="0" speed="8.82" length="11.10" shape="160.20,243.10 161.20,235.21 163.08,232.69"/>
    </edge>
    <edge id=":B4_4" function="internal">
        <lane id=":B4_4_0" index="0" speed="3.65" length="1.44" shape="160.20,243.10 161.00,241.90"/>
    </edge>
    <edge id=":B4_20" function="internal">
        <lane id=":B4_20_0" index="0" speed="8.82" length="14.78" shape="163.08,232.69 164.18,231.22 169.17,231.14 176.14,234.98"/>
    </edge>
    <edge id=":B4_21" function="internal">
        <lane id=":B4_21_0" index="0" speed="3.65" length="3.23" shape="161.00,241.90 161.80,241.50 162.60,241.90 163.40,243.10"/>
    </edge>
    <edge id=":B4_5" function="internal">
        <lane id=":B4_5_0" index="0" speed="5.57" length="9.38" shape="172.38,240.16 169.85,238.77 168.04,238.79 166.96,240.24 166.60,243.10"/>
    </edge>
    <edge id=":B4_6" function="internal">
        <lane id=":B4_6_0" index="0" speed="13.89" length="23.82" shape="172.38,240.16 153.10,226.16"/>
        <lane id=":B4_6_1" index="1" speed="13.89" length="23.82" shape="174.26,237.57 154.99,223.57"/>
    </edge>
    <edge id=":B4_8" function="internal">
        <lane id=":B4_8_0" index="0" speed="8.82" length="5.65" shape="174.26,237.57 170.14,233.70"/>
    </edge>
    <edge id=":B4_9" function="internal">
        <lane id=":B4_9_0" index="0" speed="3.65" length="1.44" shape="174.26,237.57 173.76,236.22"/>
    </edge>
    <edge id=":B4_22" function="internal">
        <lane id=":B4_22_0" index="0" speed="8.82" length="20.23" shape="170.14,233.70 168.46,232.12 166.99,227.36 169.85,223.29 177.06,219.90"/>
    </edge>
    <edge id=":B4_23" function="internal">
        <lane id=":B4_23_0" index="0" speed="3.65" length="3.23" shape="173.76,236.22 173.90,235.33 174.70,234.92 176.14,234.98"/>
    </edge>
    <edge id=":B4_10" function="internal">
        <lane id=":B4_10_0" index="0" speed="5.57" length="9.38" shape="179.03,225.99 176.42,227.21 175.38,228.69 175.92,230.42 178.02,232.39"/>
    </edge>
    <edge id=":B4_11" function="internal">
        <lane id=":B4_11_0" index="0" speed="11.42" length="22.79" shape="179.03,225.99 173.59,228.57 169.71,232.29 167.38,237.13 166.60,243.10"/>
        <lane id=":B4_11_1" index="1" speed="12.36" length="26.85" shape="178.05,222.94 171.64,225.99 167.06,230.36 164.32,236.07 163.40,243.10"/>
    </edge>
    <edge id=":B4_13" function="internal">
        <lane id=":B4_13_0" index="0" speed="13.89" length="3.82" shape="178.05,222.94 174.36,223.94"/>
    </edge>
    <edge id=":B4_14" function="internal">
        <lane id=":B4_14_0" index="0" speed="3.65" length="1.31" shape="178.05,222.94 176.78,222.59"/>
    </edge>
    <edge id=":B4_24" function="internal">
        <lane id=":B4_24_0" index="0" speed="13.89" length="19.95" shape="174.36,223.94 170.41,225.00 164.02,225.78 158.88,225.31 154.99,223.57"/>
    </edge>
    <edge id=":B4_25" function="internal">
        <lane id=":B4_25_0" index="0" speed="3.65" length="3.36" shape="176.78,222.59 176.66,222.55 176.03,221.92 176.16,221.03 177.06,219.90"/>
    </edge>
    <edge id=":B4_15" function="internal">
        <lane id=":B4_15_0" index="0" speed="12.18" length="17.81" shape="158.75,218.39 161.29,219.35 165.03,219.42 169.95,218.59 176.07,216.86"/>
    </edge>
    <edge id=":B4_16" function="internal">
        <lane id=":B4_16_0" index="0" speed="13.89" length="23.82" shape="158.75,218.39 178.02,232.39"/>
        <lane id=":B4_16_1" index="1" speed="13.89" length="23.82" shape="156.87,220.98 176.14,234.98"/>
    </edge>
    <edge id=":B4_18" function="internal">
        <lane id=":B4_18_0" index="0" speed="13.89" length="3.49" shape="156.87,220.98 159.21,223.57"/>
    </edge>
    <edge id=":B4_19" function="internal">
        <lane id=":B4_19_0" index="0" speed="3.65" length="1.44" shape="156.87,220.98 157.37,222.33"/>
    </edge>
    <edge id=":B4_26" function="internal">
        <lane id=":B4_26_0" index="0" speed="13.89" length="20.28" shape="159.21,223.57 159.72,224.14 161.77,228.88 162.99,235.20 163.40,243.10"/>
    </edge>
    <edge id=":B4_27" function="internal">
        <lane id=":B4_27_0" index="0" speed="3.65" length="3.23" shape="157.37,222.33 157.22,223.21 156.43,223.62 154.99,223.57"/>
    </edge>
    <edge id=":B5_0" function="internal">
        <lane id=":B5_0_0" index="0" speed="5.57" length="9.38" shape="279.46,206.43 277.49,204.33 275.76,203.80 274.29,204.83 273.06,207.44"/>
    </edge>
    <edge id=":B5_1" function="internal">
        <lane id=":B5_1_0" index="0" speed="11.42" length="22.79" shape="279.46,206.43 275.32,202.05 270.59,199.51 265.26,198.79 259.34,199.89"/>
        <lane id=":B5_1_1" index="1" speed="12.36" length="26.85" shape="282.05,204.55 277.17,199.40 271.60,196.39 265.33,195.55 258.35,196.85"/>
    </edge>
    <edge id=":B5_3" function="internal">
        <lane id=":B5_3_0" index="0" speed="13.89" length="3.82" shape="282.05,204.55 279.97,201.35"/>
    </edge>
    <edge id=":B5_4" function="internal">
        <lane id=":B5_4_0" index="0" speed="3.65" length="1.31" shape="282.05,204.55 282.00,203.24"/>
    </edge>
    <edge id=":B5_20" function="internal">
        <lane id=":B5_20_0" index="0" speed="13.89" length="19.95" shape="279.97,201.35 277.74,197.92 275.01,192.09 273.88,187.05 274.33,182.81"/>
    </edge>
    <edge id=":B5_21" function="internal">