<?xml version='1.0' encoding='utf-8'?>
<edges><edge id="edge_0_0_to_1_0" from="node_0_0" to="node_1_0" numLanes="2" speed="13.89" /><edge id="edge_1_0_to_0_0" from="node_1_0" to="node_0_0" numLanes="2" speed="13.89" /><edge id="edge_0_0_to_0_1" from="node_0_0" to="node_0_1" numLanes="2" speed="13.89" /><edge id="edge_0_1_to_0_0" from="node_0_1" to="node_0_0" numLanes="2" speed="13.89" /><edge id="edge_0_1_to_1_1" from="node_0_1" to="node_1_1" numLanes="2" speed="13.89" /><edge id="edge_1_1_to_0_1" from="node_1_1" to="node_0_1" numLanes="2" speed="13.89" /><edge id="edge_0_1_to_0_2" from="node_0_1" to="node_0_2" numLanes="2" speed="13.89" /><edge id="edge_0_2_to_0_1" from="node_0_2" to="node_0_1" numLanes="2" speed="13.89" /><edge id="edge_0_2_to_1_2" from="node_0_2" to="node_1_2" numLanes="2" speed="13.89" /><edge id="edge_1_2_to_0_2" from="node_1_2" to="node_0_2" numLanes="2" speed="13.89" /><edge id="edge_0_2_to_0_3" from="node_0_2" to="node_0_3" numLanes="2" speed="13.89" /><edge id="edge_0_3_to_0_2" from="node_0_3" to="node_0_2" numLanes="2" speed="13.89" /><edge id="edge_0_3_to_1_3" from="node_0_3" to="node_1_3" numLanes="2" speed="13.89" /><edge id="edge_1_3_to_0_3" from="node_1_3" to="node_0_3" numLanes="2" speed="13.89" /><edge id="edge_1_0_to_2_0" from="node_1_0" to="node_2_0" numLanes="2" speed="13.89" /><edge id="edge_2_0_to_1_0" from="node_2_0" to="node_1_0" numLanes="2" speed="13.89" /><edge id="edge_1_0_to_1_1" from="node_1_0" to="node_1_1" numLanes="2" speed="13.89" /><edge id="edge_1_1_to_1_0" from="node_1_1" to="node_1_0" numLanes="2" speed="13.89" /><edge id="edge_1_1_to_2_1" from="node_1_1" to="node_2_1" numLanes="2" speed="13.89" /><edge id="edge_2_1_to_1_1" from="node_2_1" to="node_1_1" numLanes="2" speed="13.89" /><edge id="edge_1_1_to_1_2" from="node_1_1" to="node_1_2" numLanes="2" speed="13.89" /><edge id="edge_1_2_to_1_1" from="node_1_2" to="node_1_1" numLanes="2" speed="13.89" /><edge id="edge_1_2_to_2_2" from="node_1_2" to="node_2_2" numLanes="2" speed="13.89" /><edge id="edge_2_2_to_1_2" from="node_2_2" to="node_1_2" numLanes="2" speed="13.89" /><edge id="edge_1_2_to_1_3" from="node_1_2" to="node_1_3" numLanes="2" speed="13.89" /><edge id="edge_1_3_to_1_2" from="node_1_3" to="node_1_2" numLanes="2" speed="13.89" /><edge id="edge_1_3_to_2_3" from="node_1_3" to="node_2_3" numLanes="2" speed="13.89" /><edge id="edge_2_3_to_1_3" from="node_2_3" to="node_1_3" numLanes="2" speed="13.89" /><edge id="edge_2_0_to_3_0" from="node_2_0" to="node_3_0" numLanes="2" speed="13.89" /><edge id="edge_3_0_to_2_0" from="node_3_0" to="node_2_0" numLanes="2" speed="13.89" /><edge id="edge_2_0_to_2_1" from="node_2_0" to="node_2_1" numLanes="2" speed="13.89" /><edge id="edge_2_1_to_2_0" from="node_2_1" to="node_2_0" numLanes="2" speed="13.89" /><edge id="edge_2_1_to_3_1" from="node_2_1" to="node_3_1" numLanes="2" speed="13.89" /><edge id="edge_3_1_to_2_1" from="node_3_1" to="node_2_1" numLanes="2" speed="13.89" /><edge id="edge_2_1_to_2_2" from="node_2_1" to="node_2_2" numLanes="2" speed="13.89" /><edge id="edge_2_2_to_2_1" from="node_2_2" to="node_2_1" numLanes="2" speed="13.89" /><edge id="edge_2_2_to_3_2" from="node_2_2" to="node_3_2" numLanes="2" speed="13.89" /><edge id="edge_3_2_to_2_2" from="node_3_2" to="node_2_2" numLanes="2" speed="13.89" /><edge id="edge_2_2_to_2_3" from="node_2_2" to="node_2_3" numLanes="2" speed="13.89" /><edge id="edge_2_3_to_2_2" from="node_2_3" to="node_2_2" numLanes="2" speed="13.89" /><edge id="edge_2_3_to_3_3" from="node_2_3" to="node_3_3" numLanes="2" speed="13.89" /><edge id="edge_3_3_to_2_3" from="node_3_3" to="node_2_3" numLanes="2" speed="13.89" /><edge id="edge_3_0_to_3_1" from="node_3_0" to="node_3_1" numLanes="2" speed="13.89" /><edge id="edge_3_1_to_3_0" from="node_3_1" to="node_3_0" numLanes="2" speed="13.89" /><edge id="edge_3_1_to_3_2" from="node_3_1" to="node_3_2" numLanes="2" speed="13.89" /><edge id="edge_3_2_to_3_1" from="node_3_2" to="node_3_1" numLanes="2" speed="13.89" /><edge id="edge_3_2_to_3_3" from="node_3_2" to="node_3_3" numLanes="2" speed="13.89" /><edge id="edge_3_3_to_3_2" from="node_3_3" to="node_3_2" numLanes="2" speed="13.89" /></edges>