<?xml version='1.0' encoding='utf-8'?>
<nodes><node id="node_0_0" x="0" y="0" type="priority" /><node id="node_0_1" x="0" y="200" type="traffic_light" /><node id="node_0_2" x="0" y="400" type="traffic_light" /><node id="node_0_3" x="0" y="600" type="priority" /><node id="node_1_0" x="200" y="0" type="traffic_light" /><node id="node_1_1" x="200" y="200" type="traffic_light" /><node id="node_1_2" x="200" y="400" type="traffic_light" /><node id="node_1_3" x="200" y="600" type="traffic_light" /><node id="node_2_0" x="400" y="0" type="traffic_light" /><node id="node_2_1" x="400" y="200" type="traffic_light" /><node id="node_2_2" x="400" y="400" type="traffic_light" /><node id="node_2_3" x="400" y="600" type="traffic_light" /><node id="node_3_0" x="600" y="0" type="priority" /><node id="node_3_1" x="600" y="200" type="traffic_light" /><node id="node_3_2" x="600" y="400" type="traffic_light" /><node id="node_3_3" x="600" y="600" type="priority" /></nodes>