<?xml version="1.0" encoding="UTF-8"?>

<!-- generated on 2025-04-27 19:37:23 by Eclipse SUMO netconvert Version 1.22.0
<netconvertConfiguration xmlns:xsi="http://www.w3.org/2001/XMLSchema-instance" xsi:noNamespaceSchemaLocation="http://sumo.dlr.de/xsd/netconvertConfiguration.xsd">

    <input>
        <sumo-net-file value="curriculum_scenarios\spider_5arms_1lane\spider_5arms_1lane_base.net.xml"/>
    </input>

    <output>
        <output-file value="curriculum_scenarios\spider_5arms_1lane\spider_5arms_1lane.net.xml"/>
    </output>

    <processing>
        <geometry.min-radius.fix.railways value="false"/>
        <geometry.max-grade.fix value="false"/>
        <offset.disable-normalization value="true"/>
        <lefthand value="0"/>
    </processing>

    <tls_building>
        <tls.guess value="true"/>
        <tls.guess.threshold value="1"/>
        <tls.green.time value="30"/>
        <tls.yellow.time value="4"/>
        <tls.red.time value="1"/>
    </tls_building>

    <junctions>
        <no-turnarounds value="true"/>
        <junctions.corner-detail value="5"/>
        <junctions.limit-turn-speed value="5.50"/>
        <rectangular-lane-cut value="0"/>
    </junctions>

    <pedestrian>
        <walkingareas value="0"/>
    </pedestrian>

</netconvertConfiguration>
-->

<net version="1.20" junctionCornerDetail="5" limitTurnSpeed="5.50" xmlns:xsi="http://www.w3.org/2001/XMLSchema-instance" xsi:noNamespaceSchemaLocation="http://sumo.dlr.de/xsd/net_file.xsd">

    <location netOffset="242.71,285.32" convBoundary="0.00,0.00,542.71,570.63" origBoundary="-242.71,-285.32,300.00,285.32" projParameter="!"/>

    <edge id=":A1_0" function="internal">
        <lane id=":A1_0_0" index="0" speed="5.93" length="9.10" shape="243.79,293.81 242.63,291.45 241.09,290.29 239.17,290.33 236.85,291.55"/>
    </edge>
    <edge id=":A1_1" function="internal">
        <lane id=":A1_1_0" index="0" speed="13.89" length="15.22" shape="243.79,293.81 242.33,290.32 240.32,287.06 237.84,284.14 234.97,281.67"/>
    </edge>
    <edge id=":A1_2" function="internal">
        <lane id=":A1_2_0" index="0" speed="13.89" length="17.18" shape="243.79,293.81 242.92,289.82 242.63,285.32 242.92,280.82 243.79,276.83"/>
    </edge>
    <edge id=":A1_3" function="internal">
        <lane id=":A1_3_0" index="0" speed="7.56" length="5.47" shape="243.79,293.81 243.01,289.39 243.30,288.45"/>
    </edge>
    <edge id=":A1_4" function="internal">
        <lane id=":A1_4_0" index="0" speed="3.65" length="1.44" shape="243.79,293.81 244.18,292.42"/>
    </edge>
    <edge id=":A1_25" function="internal">
        <lane id=":A1_25_0" index="0" speed="7.56" length="10.08" shape="243.30,288.45 243.98,286.24 246.68,284.35 251.11,283.72"/>
    </edge>
    <edge id=":A1_26" function="internal">
        <lane id=":A1_26_0" index="0" speed="3.65" length="3.23" shape="244.18,292.42 244.81,291.79 245.70,291.92 246.83,292.82"/>
    </edge>
    <edge id=":A1_5" function="internal">
        <lane id=":A1_5_0" index="0" speed="5.93" length="9.09" shape="251.11,286.92 248.52,287.29 246.94,288.39 246.38,290.24 246.83,292.82"/>
    </edge>
    <edge id=":A1_6" function="internal">
        <lane id=":A1_6_0" index="0" speed="13.89" length="15.22" shape="251.11,286.92 247.35,287.23 243.62,288.14 240.08,289.59 236.85,291.55"/>
    </edge>
    <edge id=":A1_7" function="internal">
        <lane id=":A1_7_0" index="0" speed="13.89" length="17.18" shape="251.11,286.92 247.05,286.51 242.68,285.40 238.50,283.73 234.97,281.67"/>
    </edge>
    <edge id=":A1_8" function="internal">
        <lane id=":A1_8_0" index="0" speed="7.56" length="2.98" shape="251.11,286.92 248.17,286.50"/>
    </edge>
    <edge id=":A1_9" function="internal">
        <lane id=":A1_9_0" index="0" speed="3.65" length="1.34" shape="251.11,286.92 250.00,286.18"/>
    </edge>
    <edge id=":A1_27" function="internal">
        <lane id=":A1_27_0" index="0" speed="7.56" length="12.58" shape="248.17,286.50 246.68,286.29 243.98,284.40 243.01,281.25 243.79,276.83"/>
    </edge>
    <edge id=":A1_28" function="internal">
        <lane id=":A1_28_0" index="0" speed="3.65" length="3.34" shape="250.00,286.18 249.91,286.12 249.51,285.32 249.91,284.52 251.11,283.72"/>
    </edge>
    <edge id=":A1_10" function="internal">
        <lane id=":A1_10_0" index="0" speed="5.93" length="9.10" shape="246.83,277.82 246.38,280.40 246.94,282.25 248.52,283.35 251.11,283.72"/>
    </edge>
    <edge id=":A1_11" function="internal">
        <lane id=":A1_11_0" index="0" speed="13.89" length="15.22" shape="246.83,277.82 245.96,281.50 245.67,285.32 245.96,289.14 246.83,292.82"/>
    </edge>
    <edge id=":A1_12" function="internal">
        <lane id=":A1_12_0" index="0" speed="13.89" length="17.18" shape="246.83,277.82 245.19,281.56 242.78,285.37 239.90,288.84 236.85,291.55"/>
    </edge>
    <edge id=":A1_13" function="internal">
        <lane id=":A1_13_0" index="0" speed="7.56" length="2.98" shape="246.83,277.82 245.52,280.49"/>
    </edge>
    <edge id=":A1_14" function="internal">
        <lane id=":A1_14_0" index="0" speed="3.65" length="1.34" shape="246.83,277.82 245.78,278.65"/>
    </edge>
    <edge id=":A1_29" function="internal">
        <lane id=":A1_29_0" index="0" speed="7.56" length="12.58" shape="245.52,280.49 244.86,281.84 242.23,283.83 238.93,283.77 234.97,281.67"/>
    </edge>
    <edge id=":A1_30" function="internal">
        <lane id=":A1_30_0" index="0" speed="3.65" length="3.34" shape="245.78,278.65 245.70,278.72 244.81,278.85 244.18,278.22 243.79,276.83"/>
    </edge>
    <edge id=":A1_15" function="internal">
        <lane id=":A1_15_0" index="0" speed="5.93" length="9.10" shape="236.85,279.09 239.17,280.31 241.09,280.35 242.63,279.19 243.79,276.83"/>
    </edge>
    <edge id=":A1_16" function="internal">
        <lane id=":A1_16_0" index="0" speed="13.89" length="15.22" shape="236.85,279.09 240.08,281.05 243.62,282.50 247.35,283.41 251.11,283.72"/>
    </edge>
    <edge id=":A1_17" function="internal">
        <lane id=":A1_17_0" index="0" speed="13.89" length="17.18" shape="236.85,279.09 239.90,281.80 242.78,285.27 245.19,289.08 246.83,292.82"/>
    </edge>
    <edge id=":A1_18" function="internal">
        <lane id=":A1_18_0" index="0" speed="7.56" length="15.55" shape="236.85,279.09 240.07,282.20 241.14,285.32 240.07,288.44 236.85,291.55"/>
    </edge>
    <edge id=":A1_19" function="internal">
        <lane id=":A1_19_0" index="0" speed="3.65" length="1.44" shape="236.85,279.09 237.35,280.44"/>
    </edge>
    <edge id=":A1_31" function="internal">
        <lane id=":A1_31_0" index="0" speed="3.65" length="3.23" shape="237.35,280.44 237.20,281.32 236.41,281.73 234.97,281.67"/>
    </edge>
    <edge id=":A1_20" function="internal">
        <lane id=":A1_20_0" index="0" speed="5.93" length="9.09" shape="234.97,288.97 236.85,287.14 237.48,285.32 236.85,283.50 234.97,281.67"/>
    </edge>
    <edge id=":A1_21" function="internal">
        <lane id=":A1_21_0" index="0" speed="13.89" length="15.22" shape="234.97,288.97 237.84,286.50 240.32,283.58 242.32,280.32 243.79,276.83"/>
    </edge>
    <edge id=":A1_22" function="internal">
        <lane id=":A1_22_0" index="0" speed="13.89" length="17.18" shape="234.97,288.97 238.50,286.91 242.68,285.24 247.05,284.13 251.11,283.72"/>
    </edge>
    <edge id=":A1_23" function="internal">
        <lane id=":A1_23_0" index="0" speed="7.56" length="5.47" shape="234.97,288.97 238.93,286.87 239.92,286.85"/>
    </edge>
    <edge id=":A1_24" function="internal">
        <lane id=":A1_24_0" index="0" speed="3.65" length="1.44" shape="234.97,288.97 236.41,288.91"/>
    </edge>
    <edge id=":A1_32" function="internal">
        <lane id=":A1_32_0" index="0" speed="7.56" length="10.08" shape="239.92,286.85 242.23,286.81 244.86,288.80 246.83,292.82"/>
    </edge>
    <edge id=":A1_33" function="internal">
        <lane id=":A1_33_0" index="0" speed="3.65" length="3.23" shape="236.41,288.91 237.20,289.32 237.35,290.20 236.85,291.55"/>
    </edge>
    <edge id=":B1_0" function="internal">
        <lane id=":B1_0_0" index="0" speed="10.58" length="13.31" shape="348.34,286.92 345.89,287.40 343.34,288.83 340.70,291.23 337.96,294.58"/>
    </edge>
    <edge id=":B1_1" function="internal">
        <lane id=":B1_1_0" index="0" speed="13.89" length="15.91" shape="348.34,286.92 332.43,286.92"/>
    </edge>
    <edge id=":B1_2" function="internal">
        <lane id=":B1_2_0" index="0" speed="11.67" length="3.52" shape="348.34,286.92 345.11,286.36 344.90,286.25"/>
    </edge>
    <edge id=":B1_3" function="internal">
        <lane id=":B1_3_0" index="0" speed="3.65" length="1.44" shape="348.34,286.92 347.14,286.12"/>
    </edge>
    <edge id=":B1_16" function="internal">
        <lane id=":B1_16_0" index="0" speed="11.67" length="12.80" shape="344.90,286.25 341.88,284.68 338.63,281.87 335.37,277.94"/>
    </edge>
    <edge id=":B1_17" function="internal">
        <lane id=":B1_17_0" index="0" speed="3.65" length="3.23" shape="347.14,286.12 346.74,285.32 347.14,284.52 348.34,283.72"/>
    </edge>
    <edge id=":B1_4" function="internal">
        <lane id=":B1_4_0" index="0" speed="10.58" length="13.31" shape="337.96,276.06 340.70,279.41 343.34,281.81 345.89,283.24 348.34,283.72"/>
    </edge>
    <edge id=":B1_5" function="internal">
        <lane id=":B1_5_0" index="0" speed="10.71" length="19.95" shape="337.96,276.06 340.48,280.69 341.32,285.32 340.48,289.95 337.96,294.58"/>
    </edge>
    <edge id=":B1_6" function="internal">
        <lane id=":B1_6_0" index="0" speed="7.38" length="8.16" shape="337.96,276.06 340.57,280.81 340.53,283.55"/>
    </edge>
    <edge id=":B1_7" function="internal">
        <lane id=":B1_7_0" index="0" speed="3.65" length="1.44" shape="337.96,276.06 338.02,277.50"/>
    </edge>
    <edge id=":B1_18" function="internal">
        <lane id=":B1_18_0" index="0" speed="7.38" length="9.47" shape="340.53,283.55 340.52,284.21 337.81,286.24 332.43,286.92"/>
    </edge>
    <edge id=":B1_19" function="internal">
        <lane id=":B1_19_0" index="0" speed="3.65" length="3.23" shape="338.02,277.50 337.61,278.30 336.73,278.44 335.37,277.94"/>
    </edge>
    <edge id=":B1_8" function="internal">
        <lane id=":B1_8_0" index="0" speed="5.57" length="9.38" shape="332.43,283.72 335.29,283.36 336.74,282.28 336.76,280.47 335.37,277.94"/>
    </edge>
    <edge id=":B1_9" function="internal">
        <lane id=":B1_9_0" index="0" speed="13.89" length="15.91" shape="332.43,283.72 348.34,283.72"/>
    </edge>
    <edge id=":B1_10" function="internal">
        <lane id=":B1_10_0" index="0" speed="7.38" length="5.28" shape="332.43,283.72 337.67,284.38"/>
    </edge>
    <edge id=":B1_11" function="internal">
        <lane id=":B1_11_0" index="0" speed="3.65" length="1.44" shape="332.43,283.72 333.63,284.52"/>
    </edge>
    <edge id=":B1_20" function="internal">
        <lane id=":B1_20_0" index="0" speed="7.38" length="12.35" shape="337.67,284.38 337.81,284.40 340.52,286.43 340.57,289.83 337.96,294.58"/>
    </edge>
    <edge id=":B1_21" function="internal">
        <lane id=":B1_21_0" index="0" speed="3.65" length="3.23" shape="333.63,284.52 334.03,285.32 333.63,286.12 332.43,286.92"/>
    </edge>
    <edge id=":B1_12" function="internal">
        <lane id=":B1_12_0" index="0" speed="5.57" length="9.38" shape="335.37,292.70 336.76,290.17 336.74,288.36 335.29,287.28 332.43,286.92"/>
    </edge>
    <edge id=":B1_13" function="internal">
        <lane id=":B1_13_0" index="0" speed="9.61" length="15.90" shape="335.37,292.70 337.38,289.01 338.05,285.32 337.38,281.63 335.37,277.94"/>
    </edge>
    <edge id=":B1_14" function="internal">
        <lane id=":B1_14_0" index="0" speed="11.67" length="3.59" shape="335.37,292.70 337.67,289.93"/>
    </edge>
    <edge id=":B1_15" function="internal">
        <lane id=":B1_15_0" index="0" speed="3.65" length="1.31" shape="335.37,292.70 336.60,292.24"/>
    </edge>
    <edge id=":B1_22" function="internal">
        <lane id=":B1_22_0" index="0" speed="11.67" length="12.73" shape="337.67,289.93 338.63,288.77 341.88,285.96 345.11,284.28 348.34,283.72"/>
    </edge>
    <edge id=":B1_23" function="internal">
        <lane id=":B1_23_0" index="0" speed="3.65" length="3.36" shape="336.60,292.24 336.73,292.20 337.61,292.34 338.02,293.14 337.96,294.58"/>
    </edge>
    <edge id=":B2_0" function="internal">
        <lane id=":B2_0_0" index="0" speed="10.58" length="13.31" shape="273.83,386.27 272.61,384.08 270.46,382.10 267.37,380.33 263.34,378.77"/>
    </edge>
    <edge id=":B2_1" function="internal">
        <lane id=":B2_1_0" index="0" speed="13.89" length="15.91" shape="273.83,386.27 268.91,371.14"/>
    </edge>
    <edge id=":B2_2" function="internal">
        <lane id=":B2_2_0" index="0" speed="11.67" length="3.52" shape="273.83,386.27 273.36,383.03 273.40,382.79"/>
    </edge>
    <edge id=":B2_3" function="internal">
        <lane id=":B2_3_0" index="0" speed="3.65" length="1.44" shape="273.83,386.27 274.22,384.88"/>
    </edge>
    <edge id=":B2_16" function="internal">
        <lane id=":B2_16_0" index="0" speed="11.67" length="12.80" shape="273.40,382.79 273.96,379.43 275.63,375.47 278.36,371.16"/>
    </edge>
    <edge id=":B2_17" function="internal">
        <lane id=":B2_17_0" index="0" speed="3.65" length="3.23" shape="274.22,384.88 274.86,384.25 275.74,384.39 276.87,385.28"/>
    </edge>
    <edge id=":B2_4" function="internal">
        <lane id=":B2_4_0" index="0" speed="10.58" length="13.31" shape="280.95,373.04 278.61,376.68 277.15,379.93 276.57,382.80 276.87,385.28"/>
    </edge>
    <edge id=":B2_5" function="internal">
        <lane id=":B2_5_0" index="0" speed="10.71" length="19.95" shape="280.95,373.04 277.32,376.87 273.18,379.10 268.52,379.73 263.34,378.77"/>
    </edge>
    <edge id=":B2_6" function="internal">
        <lane id=":B2_6_0" index="0" speed="7.38" length="8.16" shape="280.95,373.04 277.24,377.00 274.62,377.80"/>
    </edge>
    <edge id=":B2_7" function="internal">
        <lane id=":B2_7_0" index="0" speed="3.65" length="1.44" shape="280.95,373.04 279.59,373.54"/>
    </edge>
    <edge id=":B2_18" function="internal">
        <lane id=":B2_18_0" index="0" speed="7.38" length="9.47" shape="274.62,377.80 273.99,378.00 271.22,376.04 268.91,371.14"/>
    </edge>
    <edge id=":B2_19" function="internal">
        <lane id=":B2_19_0" index="0" speed="3.65" length="3.23" shape="279.59,373.54 278.71,373.40 278.30,372.60 278.36,371.16"/>
    </edge>
    <edge id=":B2_8" function="internal">
        <lane id=":B2_8_0" index="0" speed="5.57" length="9.38" shape="271.95,370.15 273.18,372.76 274.66,373.80 276.38,373.27 278.36,371.16"/>
    </edge>
    <edge id=":B2_9" function="internal">
        <lane id=":B2_9_0" index="0" speed="13.89" length="15.91" shape="271.95,370.15 276.87,385.28"/>
    </edge>
    <edge id=":B2_10" function="internal">
        <lane id=":B2_10_0" index="0" speed="7.38" length="5.28" shape="271.95,370.15 272.95,375.33"/>
    </edge>
    <edge id=":B2_11" function="internal">
        <lane id=":B2_11_0" index="0" speed="3.65" length="1.44" shape="271.95,370.15 271.56,371.54"/>
    </edge>
    <edge id=":B2_20" function="internal">
        <lane id=":B2_20_0" index="0" speed="7.38" length="12.35" shape="272.95,375.33 272.97,375.47 271.87,378.68 268.66,379.78 263.34,378.77"/>
    </edge>
    <edge id=":B2_21" function="internal">
        <lane id=":B2_21_0" index="0" speed="3.65" length="3.23" shape="271.56,371.54 270.93,372.16 270.04,372.03 268.91,371.14"/>
    </edge>
    <edge id=":B2_12" function="internal">
        <lane id=":B2_12_0" index="0" speed="5.57" length="9.38" shape="264.33,375.72 267.16,376.26 268.87,375.68 269.45,373.97 268.91,371.14"/>
    </edge>
    <edge id=":B2_13" function="internal">
        <lane id=":B2_13_0" index="0" speed="9.61" length="15.90" shape="264.33,375.72 268.46,376.49 272.17,375.99 275.47,374.21 278.36,371.16"/>
    </edge>
    <edge id=":B2_14" function="internal">
        <lane id=":B2_14_0" index="0" speed="11.67" length="3.59" shape="264.33,375.72 267.67,377.05"/>
    </edge>
    <edge id=":B2_15" function="internal">
        <lane id=":B2_15_0" index="0" speed="3.65" length="1.31" shape="264.33,375.72 265.14,376.75"/>
    </edge>
    <edge id=":B2_22" function="internal">
        <lane id=":B2_22_0" index="0" speed="11.67" length="12.72" shape="267.67,377.05 269.07,377.61 272.74,379.83 275.34,382.38 276.87,385.28"/>
    </edge>
    <edge id=":B2_23" function="internal">
        <lane id=":B2_23_0" index="0" speed="3.65" length="3.36" shape="265.14,376.75 265.22,376.85 265.35,377.74 264.73,378.38 263.34,378.77"/>
    </edge>
    <edge id=":B3_0" function="internal">
        <lane id=":B3_0_0" index="0" speed="10.58" length="13.32" shape="171.08,348.80 166.90,347.70 163.36,347.31 160.45,347.65 158.18,348.70"/>
    </edge>
    <edge id=":B3_1" function="internal">
        <lane id=":B3_1_0" index="0" speed="10.71" length="19.95" shape="171.08,348.80 166.32,346.54 162.92,343.29 160.88,339.05 160.20,333.82"/>
    </edge>
    <edge id=":B3_2" function="internal">
        <lane id=":B3_2_0" index="0" speed="7.38" length="8.16" shape="171.08,348.80 166.18,346.49 164.60,344.25"/>
    </edge>
    <edge id=":B3_3" function="internal">
        <lane id=":B3_3_0" index="0" speed="3.65" length="1.44" shape="171.08,348.80 170.19,347.67"/>
    </edge>
    <edge id=":B3_16" function="internal">
        <lane id=":B3_16_0" index="0" speed="7.38" length="9.47" shape="164.60,344.25 164.22,343.72 165.22,340.47 169.18,336.76"/>
    </edge>
    <edge id=":B3_17" function="internal">
        <lane id=":B3_17_0" index="0" speed="3.65" length="3.23" shape="170.19,347.67 170.06,346.78 170.68,346.14 172.07,345.75"/>
    </edge>
    <edge id=":B3_4" function="internal">
        <lane id=":B3_4_0" index="0" speed="5.57" length="9.38" shape="171.06,339.35 168.96,341.33 168.42,343.05 169.46,344.53 172.07,345.75"/>
    </edge>
    <edge id=":B3_5" function="internal">
        <lane id=":B3_5_0" index="0" speed="13.89" length="15.91" shape="171.06,339.35 158.18,348.70"/>
    </edge>
    <edge id=":B3_6" function="internal">
        <lane id=":B3_6_0" index="0" speed="7.38" length="5.28" shape="171.06,339.35 166.43,341.90"/>
    </edge>
    <edge id=":B3_7" function="internal">
        <lane id=":B3_7_0" index="0" speed="3.65" length="1.44" shape="171.06,339.35 169.62,339.41"/>
    </edge>
    <edge id=":B3_18" function="internal">
        <lane id=":B3_18_0" index="0" speed="7.38" length="12.35" shape="166.43,341.90 166.31,341.96 162.91,341.91 160.88,339.20 160.20,333.82"/>
    </edge>
    <edge id=":B3_19" function="internal">
        <lane id=":B3_19_0" index="0" speed="3.65" length="3.23" shape="169.62,339.41 168.82,339.00 168.68,338.12 169.18,336.76"/>
    </edge>
    <edge id=":B3_8" function="internal">
        <lane id=":B3_8_0" index="0" speed="5.57" length="9.38" shape="163.40,333.82 163.76,336.68 164.84,338.13 166.65,338.15 169.18,336.76"/>
    </edge>
    <edge id=":B3_9" function="internal">
        <lane id=":B3_9_0" index="0" speed="9.61" length="15.90" shape="163.40,333.82 163.94,337.98 165.57,341.36 168.28,343.95 172.07,345.75"/>
    </edge>
    <edge id=":B3_10" function="internal">
        <lane id=":B3_10_0" index="0" speed="11.67" length="3.59" shape="163.40,333.82 163.17,337.40"/>
    </edge>
    <edge id=":B3_11" function="internal">
        <lane id=":B3_11_0" index="0" speed="3.65" length="1.31" shape="163.40,333.82 162.67,334.91"/>
    </edge>
    <edge id=":B3_20" function="internal">
        <lane id=":B3_20_0" index="0" speed="11.67" length="12.73" shape="163.17,337.40 163.07,338.91 162.10,343.09 160.47,346.35 158.18,348.70"/>
    </edge>
    <edge id=":B3_21" function="internal">
        <lane id=":B3_21_0" index="0" speed="3.65" length="3.36" shape="162.67,334.91 162.60,335.02 161.80,335.42 161.00,335.02 160.20,333.82"/>
    </edge>
    <edge id=":B3_12" function="internal">
        <lane id=":B3_12_0" index="0" speed="10.58" length="13.31" shape="156.30,346.11 158.01,344.29 159.23,341.63 159.96,338.14 160.20,333.82"/>
    </edge>
    <edge id=":B3_13" function="internal">
        <lane id=":B3_13_0" index="0" speed="13.89" length="15.91" shape="156.30,346.11 169.18,336.76"/>
    </edge>
    <edge id=":B3_14" function="internal">
        <lane id=":B3_14_0" index="0" speed="11.67" length="3.52" shape="156.30,346.11 159.25,344.67 159.48,344.64"/>
    </edge>
    <edge id=":B3_15" function="internal">
        <lane id=":B3_15_0" index="0" speed="3.65" length="1.44" shape="156.30,346.11 157.75,346.06"/>
    </edge>
    <edge id=":B3_22" function="internal">
        <lane id=":B3_22_0" index="0" speed="11.67" length="12.80" shape="159.48,344.64 162.85,344.13 167.13,344.49 172.07,345.75"/>
    </edge>
    <edge id=":B3_23" function="internal">
        <lane id=":B3_23_0" index="0" speed="3.65" length="3.23" shape="157.75,346.06 158.54,346.47 158.69,347.35 158.18,348.70"/>
    </edge>
    <edge id=":B4_0" function="internal">
        <lane id=":B4_0_0" index="0" speed="10.58" length="13.31" shape="160.20,236.82 159.96,232.50 159.23,229.01 158.01,226.35 156.30,224.52"/>
    </edge>
    <edge id=":B4_1" function="internal">
        <lane id=":B4_1_0" index="0" speed="10.71" length="19.95" shape="160.20,236.82 160.88,231.59 162.92,227.35 166.32,224.10 171.08,221.84"/>
    </edge>
    <edge id=":B4_2" function="internal">
        <lane id=":B4_2_0" index="0" speed="7.38" length="8.16" shape="160.20,236.82 160.88,231.44 162.52,229.25"/>
    </edge>
    <edge id=":B4_3" function="internal">
        <lane id=":B4_3_0" index="0" speed="3.65" length="1.44" shape="160.20,236.82 161.00,235.62"/>
    </edge>
    <edge id=":B4_16" function="internal">
        <lane id=":B4_16_0" index="0" speed="7.38" length="9.47" shape="162.52,229.25 162.91,228.73 166.31,228.68 171.06,231.29"/>
    </edge>
    <edge id=":B4_17" function="internal">
        <lane id=":B4_17_0" index="0" speed="3.65" length="3.23" shape="161.00,235.62 161.80,235.22 162.60,235.62 163.40,236.82"/>
    </edge>
    <edge id=":B4_4" function="internal">
        <lane id=":B4_4_0" index="0" speed="5.57" length="9.38" shape="169.18,233.88 166.65,232.49 164.84,232.51 163.76,233.96 163.40,236.82"/>
    </edge>
    <edge id=":B4_5" function="internal">
        <lane id=":B4_5_0" index="0" speed="13.89" length="15.91" shape="169.18,233.88 156.30,224.52"/>
    </edge>
    <edge id=":B4_6" function="internal">
        <lane id=":B4_6_0" index="0" speed="7.38" length="5.28" shape="169.18,233.88 165.33,230.26"/>
    </edge>
    <edge id=":B4_7" function="internal">
        <lane id=":B4_7_0" index="0" speed="3.65" length="1.44" shape="169.18,233.88 168.68,232.52"/>
    </edge>
    <edge id=":B4_18" function="internal">
        <lane id=":B4_18_0" index="0" speed="7.38" length="12.35" shape="165.33,230.26 165.22,230.17 164.22,226.92 166.18,224.15 171.08,221.84"/>
    </edge>
    <edge id=":B4_19" function="internal">
        <lane id=":B4_19_0" index="0" speed="3.65" length="3.23" shape="168.68,232.52 168.82,231.64 169.62,231.23 171.06,231.29"/>
    </edge>
    <edge id=":B4_8" function="internal">
        <lane id=":B4_8_0" index="0" speed="5.57" length="9.38" shape="172.07,224.88 169.46,226.11 168.42,227.59 168.95,229.31 171.06,231.29"/>
    </edge>
    <edge id=":B4_9" function="internal">
        <lane id=":B4_9_0" index="0" speed="9.61" length="15.90" shape="172.07,224.88 168.28,226.69 165.57,229.28 163.94,232.66 163.40,236.82"/>
    </edge>
    <edge id=":B4_10" function="internal">
        <lane id=":B4_10_0" index="0" speed="11.67" length="3.59" shape="172.07,224.88 168.59,225.77"/>
    </edge>
    <edge id=":B4_11" function="internal">
        <lane id=":B4_11_0" index="0" speed="3.65" length="1.31" shape="172.07,224.88 170.81,224.53"/>
    </edge>
    <edge id=":B4_20" function="internal">
        <lane id=":B4_20_0" index="0" speed="11.67" length="12.73" shape="168.59,225.77 167.13,226.15 162.85,226.51 159.25,225.97 156.30,224.52"/>
    </edge>
    <edge id=":B4_21" function="internal">
        <lane id=":B4_21_0" index="0" speed="3.65" length="3.36" shape="170.81,224.53 170.68,224.49 170.06,223.86 170.19,222.97 171.08,221.84"/>
    </edge>
    <edge id=":B4_12" function="internal">
        <lane id=":B4_12_0" index="0" speed="10.58" length="13.31" shape="158.19,221.94 160.45,222.99 163.36,223.33 166.90,222.94 171.08,221.84"/>
    </edge>
    <edge id=":B4_13" function="internal">
        <lane id=":B4_13_0" index="0" speed="13.89" length="15.91" shape="158.19,221.94 171.06,231.29"/>
    </edge>
    <edge id=":B4_14" function="internal">
        <lane id=":B4_14_0" index="0" speed="11.67" length="3.52" shape="158.19,221.94 160.47,224.29 160.57,224.50"/>
    </edge>
    <edge id=":B4_15" function="internal">
        <lane id=":B4_15_0" index="0" speed="3.65" length="1.44" shape="158.19,221.94 158.69,223.29"/>
    </edge>
    <edge id=":B4_22" function="internal">
        <lane id=":B4_22_0" index="0" speed="11.67" length="12.80" shape="160.57,224.50 162.10,227.55 163.07,231.73 163.40,236.82"/>
    </edge>
    <edge id=":B4_23" function="internal">
        <lane id=":B4_23_0" index="0" speed="3.65" length="3.23" shape="158.69,223.29 158.54,224.17 157.75,224.58 156.30,224.52"/>
    </edge>
    <edge id=":B5_0" function="internal">
        <lane id=":B5_0_0" index="0" speed="5.57" length="9.38" shape="278.36,199.47 276.38,197.36 274.66,196.83 273.18,197.87 271.96,200.48"/>
    </edge>
    <edge id=":B5_1" function="internal">
        <lane id=":B5_1_0" index="0" speed="9.61" length="15.90" shape="278.36,199.47 275.47,196.42 272.17,194.64 268.46,194.14 264.33,194.91"/>
    </edge>
    <edge id=":B5_2" function="internal">
        <lane id=":B5_2_0" index="0" speed="11.67" length="3.59" shape="278.36,199.47 276.44,196.43"/>
    </edge>
    <edge id=":B5_3" function="internal">
        <lane id=":B5_3_0" index="0" speed="3.65" length="1.31" shape="278.36,199.47 278.31,198.16"/>
    </edge>
    <edge id=":B5_16" function="internal">
        <lane id=":B5_16_0" index="0" speed="11.67" length="12.73" shape="276.44,196.43 275.63,195.16 273.96,191.20 273.36,187.60 273.83,184.36"/>
    </edge>
    <edge id=":B5_17" function="internal">
        <lane id=":B5_17_0" index="0" speed="3.65" length="3.36" shape="278.31,198.16 278.30,198.03 278.71,197.23 279.59,197.09 280.95,197.59"/>
    </edge>
    <edge id=":B5_4" function="internal">
        <lane id=":B5_4_0" index="0" speed="10.58" length="13.31" shape="276.87,185.35 276.57,187.83 277.15,190.70 278.61,193.95 280.95,197.59"/>
    </edge>
    <edge id=":B5_5" function="internal">
        <lane id=":B5_5_0" index="0" speed="13.89" length="15.91" shape="276.87,185.35 271.96,200.48"/>
    </edge>
    <edge id=":B5_6" function="internal">
        <lane id=":B5_6_0" index="0" speed="11.67" length="3.52" shape="276.87,185.35 275.34,188.25 275.17,188.42"/>
    </edge>
    <edge id=":B5_7" function="internal">
        <lane id=":B5_7_0" index="0" speed="3.65" length="1.44" shape="276.87,185.35 275.74,186.24"/>
    </edge>
    <edge id=":B5_18" function="internal">
        <lane id=":B5_18_0" index="0" speed="11.67" length="12.80" shape="275.17,188.42 272.74,190.80 269.07,193.03 264.33,194.91"/>
    </edge>
    <edge id=":B5_19" function="internal">
        <lane id=":B5_19_0" index="0" speed="3.65" length="3.23" shape="275.74,186.24 274.86,186.38 274.22,185.75 273.83,184.36"/>
    </edge>
    <edge id=":B5_8" function="internal">
        <lane id=":B5_8_0" index="0" speed="10.58" length="13.31" shape="263.34,191.87 267.37,190.30 270.46,188.53 272.61,186.55 273.83,184.36"/>
    </edge>
    <edge id=":B5_9" function="internal">
        <lane id=":B5_9_0" index="0" speed="10.71" length="19.95" shape="263.34,191.87 268.52,190.90 273.18,191.53 277.32,193.76 280.95,197.59"/>
    </edge>
    <edge id=":B5_10" function="internal">
        <lane id=":B5_10_0" index="0" speed="7.38" length="8.16" shape="263.34,191.87 268.66,190.85 271.25,191.73"/>
    </edge>
    <edge id=":B5_11" function="internal">
        <lane id=":B5_11_0" index="0" speed="3.65" length="1.44" shape="263.34,191.87 264.73,192.26"/>
    </edge>
    <edge id=":B5_20" function="internal">
        <lane id=":B5_20_0" index="0" speed="7.38" length="9.47" shape="271.25,191.73 271.87,191.95 272.97,195.16 271.96,200.48"/>
    </edge>
    <edge id=":B5_21" function="internal">
        <lane id=":B5_21_0" index="0" speed="3.65" length="3.23" shape="264.73,192.26 265.35,192.89 265.22,193.78 264.33,194.91"/>
    </edge>
    <edge id=":B5_12" function="internal">
        <lane id=":B5_12_0" index="0" speed="5.57" length="9.38" shape="268.91,199.49 269.45,196.66 268.87,194.95 267.16,194.37 264.33,194.91"/>
    </edge>
    <edge id=":B5_13" function="internal">
        <lane id=":B5_13_0" index="0" speed="13.89" length="15.91" shape="268.91,199.49 273.83,184.36"/>
    </edge>
    <edge id=":B5_14" function="internal">
        <lane id=":B5_14_0" index="0" speed="7.38" length="5.28" shape="268.91,199.49 271.16,194.72"/>
    </edge>
    <edge id=":B5_15" function="internal">
        <lane id=":B5_15_0" index="0" speed="3.65" length="1.44" shape="268.91,199.49 270.04,198.60"/>
    </edge>
    <edge id=":B5_22" function="internal">
        <lane id=":B5_22_0" index="0" speed="7.38" length="12.35" shape="271.16,194.72 271.22,194.59 273.99,192.63 277.24,193.63 280.95,197.59"/>
    </edge>
    <edge id=":B5_23" function="internal">
        <lane id=":B5_23_0" index="0" speed="3.65" length="3.23" shape="270.04,198.60 270.93,198.47 271.57,199.09 271.96,200.48"/>
    </edge>
    <edge id=":C1_0" function="internal">
        <lane id=":C1_0_0" index="0" speed="10.58" length="13.31" shape="448.34,286.92 445.89,287.40 443.34,288.83 440.70,291.23 437.96,294.58"/>
    </edge>
    <edge id=":C1_1" function="internal">