<?xml version="1.0" encoding="UTF-8"?>

<!-- generated on 2025-04-27 19:37:23 by Eclipse SUMO netgenerate Version 1.22.0
<netgenerateConfiguration xmlns:xsi="http://www.w3.org/2001/XMLSchema-instance" xsi:noNamespaceSchemaLocation="http://sumo.dlr.de/xsd/netgenerateConfiguration.xsd">

    <spider_network>
        <spider value="true"/>
        <spider.arm-number value="5"/>
        <spider.circle-number value="3"/>
        <spider.space-radius value="100"/>
    </spider_network>

    <output>
        <output-file value="curriculum_scenarios\spider_5arms_1lane\spider_5arms_1lane_base.net.xml"/>
    </output>

    <building_defaults>
        <default.lanenumber value="1"/>
    </building_defaults>

</netgenerateConfiguration>
-->

<net version="1.20" junctionCornerDetail="5" limitTurnSpeed="5.50" xmlns:xsi="http://www.w3.org/2001/XMLSchema-instance" xsi:noNamespaceSchemaLocation="http://sumo.dlr.de/xsd/net_file.xsd">

    <location netOffset="242.71,285.32" convBoundary="0.00,0.00,542.71,570.63" origBoundary="-242.71,-285.32,300.00,285.32" projParameter="!"/>

    <edge id=":A1_0" function="internal">
        <lane id=":A1_0_0" index="0" speed="5.93" length="9.09" shape="243.78,293.80 242.63,291.45 241.09,290.29 239.16,290.33 236.85,291.55"/>
    </edge>
    <edge id=":A1_1" function="internal">
        <lane id=":A1_1_0" index="0" speed="13.89" length="15.22" shape="243.78,293.80 242.32,290.32 240.31,287.06 237.83,284.14 234.97,281.67"/>
    </edge>
    <edge id=":A1_2" function="internal">
        <lane id=":A1_2_0" index="0" speed="13.89" length="17.18" shape="243.78,293.80 242.91,289.81 242.62,285.32 242.91,280.82 243.78,276.83"/>
    </edge>
    <edge id=":A1_3" function="internal">
        <lane id=":A1_3_0" index="0" speed="7.15" length="13.80" shape="243.78,293.80 243.80,290.56 245.40,287.28 248.03,284.74 251.11,283.72"/>
    </edge>
    <edge id=":A1_4" function="internal">
        <lane id=":A1_4_0" index="0" speed="3.65" length="4.67" shape="243.78,293.80 244.17,292.42 244.81,291.79 245.69,291.92 246.82,292.82"/>
    </edge>
    <edge id=":A1_5" function="internal">
        <lane id=":A1_5_0" index="0" speed="5.93" length="9.09" shape="251.11,286.92 248.52,287.29 246.94,288.39 246.37,290.23 246.82,292.82"/>
    </edge>
    <edge id=":A1_6" function="internal">
        <lane id=":A1_6_0" index="0" speed="13.89" length="15.22" shape="251.11,286.92 247.34,287.23 243.62,288.13 240.08,289.59 236.85,291.55"/>
    </edge>
    <edge id=":A1_7" function="internal">
        <lane id=":A1_7_0" index="0" speed="13.89" length="17.18" shape="251.11,286.92 247.05,286.51 242.68,285.40 238.49,283.73 234.97,281.67"/>
    </edge>
    <edge id=":A1_8" function="internal">
        <lane id=":A1_8_0" index="0" speed="7.15" length="13.80" shape="251.11,286.92 248.03,285.90 245.40,283.36 243.80,280.07 243.78,276.83"/>
    </edge>
    <edge id=":A1_9" function="internal">
        <lane id=":A1_9_0" index="0" speed="3.65" length="4.67" shape="251.11,286.92 249.91,286.12 249.51,285.32 249.91,284.52 251.11,283.72"/>
    </edge>
    <edge id=":A1_10" function="internal">
        <lane id=":A1_10_0" index="0" speed="5.93" length="9.09" shape="246.82,277.82 246.37,280.40 246.94,282.24 248.52,283.35 251.11,283.72"/>
    </edge>
    <edge id=":A1_11" function="internal">
        <lane id=":A1_11_0" index="0" speed="13.89" length="15.22" shape="246.82,277.82 245.95,281.50 245.67,285.32 245.95,289.13 246.82,292.82"/>
    </edge>
    <edge id=":A1_12" function="internal">
        <lane id=":A1_12_0" index="0" speed="13.89" length="17.18" shape="246.82,277.82 245.18,281.56 242.77,285.37 239.89,288.83 236.85,291.55"/>
    </edge>
    <edge id=":A1_13" function="internal">
        <lane id=":A1_13_0" index="0" speed="7.15" length="13.80" shape="246.82,277.82 244.90,280.43 241.67,282.14 238.06,282.66 234.97,281.67"/>
    </edge>
    <edge id=":A1_14" function="internal">
        <lane id=":A1_14_0" index="0" speed="3.65" length="4.67" shape="246.82,277.82 245.69,278.71 244.81,278.85 244.17,278.22 243.78,276.83"/>
    </edge>
    <edge id=":A1_15" function="internal">
        <lane id=":A1_15_0" index="0" speed="5.93" length="9.09" shape="236.85,279.08 239.16,280.31 241.09,280.34 242.63,279.18 243.78,276.83"/>
    </edge>
    <edge id=":A1_16" function="internal">
        <lane id=":A1_16_0" index="0" speed="13.89" length="15.22" shape="236.85,279.08 240.08,281.05 243.62,282.50 247.34,283.41 251.11,283.72"/>
    </edge>
    <edge id=":A1_17" function="internal">
        <lane id=":A1_17_0" index="0" speed="13.89" length="17.18" shape="236.85,279.08 239.89,281.80 242.77,285.27 245.18,289.08 246.82,292.82"/>
    </edge>
    <edge id=":A1_18" function="internal">
        <lane id=":A1_18_0" index="0" speed="7.15" length="13.80" shape="236.85,279.08 238.74,281.72 239.37,285.32 238.74,288.92 236.85,291.55"/>
    </edge>
    <edge id=":A1_19" function="internal">
        <lane id=":A1_19_0" index="0" speed="3.65" length="4.67" shape="236.85,279.08 237.35,280.44 237.20,281.32 236.41,281.73 234.97,281.67"/>
    </edge>
    <edge id=":A1_20" function="internal">
        <lane id=":A1_20_0" index="0" speed="5.93" length="9.09" shape="234.97,288.96 236.85,287.14 237.47,285.32 236.85,283.49 234.97,281.67"/>
    </edge>
    <edge id=":A1_21" function="internal">
        <lane id=":A1_21_0" index="0" speed="13.89" length="15.22" shape="234.97,288.96 237.83,286.50 240.31,283.58 242.32,280.32 243.78,276.83"/>
    </edge>
    <edge id=":A1_22" function="internal">
        <lane id=":A1_22_0" index="0" speed="13.89" length="17.18" shape="234.97,288.96 238.49,286.90 242.68,285.24 247.05,284.12 251.11,283.72"/>
    </edge>
    <edge id=":A1_23" function="internal">
        <lane id=":A1_23_0" index="0" speed="7.15" length="13.80" shape="234.97,288.96 238.06,287.98 241.67,288.49 244.90,290.20 246.82,292.82"/>
    </edge>
    <edge id=":A1_24" function="internal">
        <lane id=":A1_24_0" index="0" speed="3.65" length="4.67" shape="234.97,288.96 236.41,288.90 237.20,289.32 237.35,290.20 236.85,291.55"/>
    </edge>
    <edge id=":B1_0" function="internal">
        <lane id=":B1_0_0" index="0" speed="10.58" length="13.31" shape="348.34,286.92 345.88,287.40 343.33,288.83 340.69,291.22 337.96,294.57"/>
    </edge>
    <edge id=":B1_1" function="internal">
        <lane id=":B1_1_0" index="0" speed="13.89" length="15.91" shape="348.34,286.92 332.42,286.92"/>
    </edge>
    <edge id=":B1_2" function="internal">
        <lane id=":B1_2_0" index="0" speed="11.67" length="3.52" shape="348.34,286.92 345.11,286.36 344.89,286.24"/>
    </edge>
    <edge id=":B1_3" function="internal">
        <lane id=":B1_3_0" index="0" speed="3.65" length="1.44" shape="348.34,286.92 347.14,286.12"/>
    </edge>
    <edge id=":B1_16" function="internal">
        <lane id=":B1_16_0" index="0" speed="11.67" length="12.80" shape="344.89,286.24 341.87,284.67 338.62,281.87 335.37,277.94"/>
    </edge>
    <edge id=":B1_17" function="internal">
        <lane id=":B1_17_0" index="0" speed="3.65" length="3.23" shape="347.14,286.12 346.74,285.32 347.14,284.52 348.34,283.72"/>
    </edge>
    <edge id=":B1_4" function="internal">
        <lane id=":B1_4_0" index="0" speed="10.58" length="13.31" shape="337.96,276.06 340.69,279.41 343.33,281.80 345.88,283.24 348.34,283.72"/>
    </edge>
    <edge id=":B1_5" function="internal">
        <lane id=":B1_5_0" index="0" speed="10.71" length="19.95" shape="337.96,276.06 340.48,280.69 341.32,285.32 340.48,289.95 337.96,294.57"/>
    </edge>
    <edge id=":B1_6" function="internal">
        <lane id=":B1_6_0" index="0" speed="7.38" length="17.63" shape="337.96,276.06 340.57,280.81 340.52,284.20 337.80,286.24 332.42,286.92"/>
    </edge>
    <edge id=":B1_7" function="internal">
        <lane id=":B1_7_0" index="0" speed="3.65" length="4.67" shape="337.96,276.06 338.02,277.50 337.60,278.29 336.72,278.44 335.37,277.94"/>
    </edge>
    <edge id=":B1_8" function="internal">
        <lane id=":B1_8_0" index="0" speed="5.57" length="9.38" shape="332.42,283.72 335.29,283.36 336.73,282.27 336.76,280.47 335.37,277.94"/>
    </edge>
    <edge id=":B1_9" function="internal">
        <lane id=":B1_9_0" index="0" speed="13.89" length="15.91" shape="332.42,283.72 348.34,283.72"/>
    </edge>
    <edge id=":B1_10" function="internal">
        <lane id=":B1_10_0" index="0" speed="7.38" length="5.28" shape="332.42,283.72 337.66,284.38"/>
    </edge>
    <edge id=":B1_11" function="internal">
        <lane id=":B1_11_0" index="0" speed="3.65" length="1.44" shape="332.42,283.72 333.62,284.52"/>
    </edge>
    <edge id=":B1_18" function="internal">
        <lane id=":B1_18_0" index="0" speed="7.38" length="12.35" shape="337.66,284.38 337.80,284.40 340.52,286.43 340.57,289.82 337.96,294.57"/>
    </edge>
    <edge id=":B1_19" function="internal">
        <lane id=":B1_19_0" index="0" speed="3.65" length="3.23" shape="333.62,284.52 334.02,285.32 333.62,286.12 332.42,286.92"/>
    </edge>
    <edge id=":B1_12" function="internal">
        <lane id=":B1_12_0" index="0" speed="5.57" length="9.38" shape="335.37,292.69 336.76,290.17 336.73,288.36 335.29,287.28 332.42,286.92"/>
    </edge>
    <edge id=":B1_13" function="internal">
        <lane id=":B1_13_0" index="0" speed="9.61" length="15.90" shape="335.37,292.69 337.38,289.01 338.05,285.32 337.38,281.63 335.37,277.94"/>
    </edge>
    <edge id=":B1_14" function="internal">
        <lane id=":B1_14_0" index="0" speed="11.67" length="16.32" shape="335.37,292.69 338.62,288.77 341.87,285.96 345.11,284.28 348.34,283.72"/>
    </edge>
    <edge id=":B1_15" function="internal">
        <lane id=":B1_15_0" index="0" speed="3.65" length="4.67" shape="335.37,292.69 336.72,292.19 337.60,292.34 338.02,293.13 337.96,294.57"/>
    </edge>
    <edge id=":B2_0" function="internal">
        <lane id=":B2_0_0" index="0" speed="10.58" length="13.31" shape="273.83,386.27 272.61,384.09 270.46,382.11 267.37,380.33 263.34,378.77"/>
    </edge>
    <edge id=":B2_1" function="internal">
        <lane id=":B2_1_0" index="0" speed="13.89" length="15.91" shape="273.83,386.27 268.91,371.14"/>
    </edge>
    <edge id=":B2_2" function="internal">
        <lane id=":B2_2_0" index="0" speed="11.67" length="3.52" shape="273.83,386.27 273.36,383.03 273.40,382.79"/>
    </edge>
    <edge id=":B2_3" function="internal">
        <lane id=":B2_3_0" index="0" speed="3.65" length="1.44" shape="273.83,386.27 274.22,384.88"/>
    </edge>
    <edge id=":B2_16" function="internal">
        <lane id=":B2_16_0" index="0" speed="11.67" length="12.80" shape="273.40,382.79 273.96,379.43 275.63,375.48 278.36,371.17"/>
    </edge>
    <edge id=":B2_17" function="internal">
        <lane id=":B2_17_0" index="0" speed="3.65" length="3.23" shape="274.22,384.88 274.85,384.26 275.74,384.39 276.87,385.28"/>
    </edge>
    <edge id=":B2_4" function="internal">
        <lane id=":B2_4_0" index="0" speed="10.58" length="13.31" shape="280.94,373.05 278.60,376.68 277.14,379.93 276.57,382.80 276.87,385.28"/>
    </edge>
    <edge id=":B2_5" function="internal">
        <lane id=":B2_5_0" index="0" speed="10.71" length="19.95" shape="280.94,373.05 277.32,376.88 273.18,379.11 268.52,379.74 263.34,378.77"/>
    </edge>
    <edge id=":B2_6" function="internal">
        <lane id=":B2_6_0" index="0" speed="7.38" length="17.63" shape="280.94,373.05 277.23,377.00 273.99,378.00 271.22,376.05 268.91,371.14"/>
    </edge>
    <edge id=":B2_7" function="internal">
        <lane id=":B2_7_0" index="0" speed="3.65" length="4.67" shape="280.94,373.05 279.59,373.55 278.71,373.40 278.30,372.61 278.36,371.17"/>
    </edge>
    <edge id=":B2_8" function="internal">
        <lane id=":B2_8_0" index="0" speed="5.57" length="9.38" shape="271.95,370.15 273.18,372.76 274.66,373.80 276.38,373.27 278.36,371.17"/>
    </edge>
    <edge id=":B2_9" function="internal">
        <lane id=":B2_9_0" index="0" speed="13.89" length="15.91" shape="271.95,370.15 276.87,385.28"/>
    </edge>
    <edge id=":B2_10" function="internal">
        <lane id=":B2_10_0" index="0" speed="7.38" length="5.28" shape="271.95,370.15 272.94,375.34"/>
    </edge>
    <edge id=":B2_11" function="internal">
        <lane id=":B2_11_0" index="0" speed="3.65" length="1.44" shape="271.95,370.15 271.56,371.54"/>
    </edge>
    <edge id=":B2_18" function="internal">
        <lane id=":B2_18_0" index="0" speed="7.38" length="12.35" shape="272.94,375.34 272.97,375.48 271.87,378.69 268.66,379.78 263.34,378.77"/>
    </edge>
    <edge id=":B2_19" function="internal">
        <lane id=":B2_19_0" index="0" speed="3.65" length="3.23" shape="271.56,371.54 270.92,372.17 270.04,372.03 268.91,371.14"/>
    </edge>
    <edge id=":B2_12" function="internal">
        <lane id=":B2_12_0" index="0" speed="5.57" length="9.38" shape="264.32,375.72 267.16,376.27 268.87,375.68 269.45,373.97 268.91,371.14"/>
    </edge>
    <edge id=":B2_13" function="internal">
        <lane id=":B2_13_0" index="0" speed="9.61" length="15.90" shape="264.32,375.72 268.45,376.50 272.17,375.99 275.47,374.22 278.36,371.17"/>
    </edge>
    <edge id=":B2_14" function="internal">
        <lane id=":B2_14_0" index="0" speed="11.67" length="16.32" shape="264.32,375.72 269.07,377.61 272.74,379.83 275.34,382.39 276.87,385.28"/>
    </edge>
    <edge id=":B2_15" function="internal">
        <lane id=":B2_15_0" index="0" speed="3.65" length="4.67" shape="264.32,375.72 265.22,376.86 265.35,377.74 264.72,378.38 263.34,378.77"/>
    </edge>
    <edge id=":B3_0" function="internal">
        <lane id=":B3_0_0" index="0" speed="10.58" length="13.31" shape="171.09,348.79 166.90,347.69 163.36,347.31 160.46,347.64 158.19,348.70"/>
    </edge>
    <edge id=":B3_1" function="internal">
        <lane id=":B3_1_0" index="0" speed="10.71" length="19.95" shape="171.09,348.79 166.32,346.53 162.92,343.28 160.88,339.04 160.20,333.82"/>
    </edge>
    <edge id=":B3_2" function="internal">
        <lane id=":B3_2_0" index="0" speed="7.38" length="17.63" shape="171.09,348.79 166.18,346.49 164.23,343.71 165.23,340.47 169.18,336.76"/>
    </edge>
    <edge id=":B3_3" function="internal">
        <lane id=":B3_3_0" index="0" speed="3.65" length="4.67" shape="171.09,348.79 170.19,347.66 170.06,346.78 170.69,346.14 172.08,345.75"/>
    </edge>
    <edge id=":B3_4" function="internal">
        <lane id=":B3_4_0" index="0" speed="5.57" length="9.38" shape="171.06,339.35 168.96,341.32 168.43,343.05 169.47,344.52 172.08,345.75"/>
    </edge>
    <edge id=":B3_5" function="internal">
        <lane id=":B3_5_0" index="0" speed="13.89" length="15.91" shape="171.06,339.35 158.19,348.70"/>
    </edge>
    <edge id=":B3_6" function="internal">
        <lane id=":B3_6_0" index="0" speed="7.38" length="5.28" shape="171.06,339.35 166.43,341.89"/>
    </edge>
    <edge id=":B3_7" function="internal">
        <lane id=":B3_7_0" index="0" speed="3.65" length="1.44" shape="171.06,339.35 169.62,339.41"/>
    </edge>
    <edge id=":B3_16" function="internal">
        <lane id=":B3_16_0" index="0" speed="7.38" length="12.35" shape="166.43,341.89 166.31,341.96 162.92,341.91 160.88,339.19 160.20,333.82"/>
    </edge>
    <edge id=":B3_17" function="internal">
        <lane id=":B3_17_0" index="0" speed="3.65" length="3.23" shape="169.62,339.41 168.83,338.99 168.68,338.11 169.18,336.76"/>
    </edge>
    <edge id=":B3_8" function="internal">
        <lane id=":B3_8_0" index="0" speed="5.57" length="9.38" shape="163.40,333.82 163.76,336.68 164.85,338.12 166.65,338.15 169.18,336.76"/>
    </edge>
    <edge id=":B3_9" function="internal">
        <lane id=":B3_9_0" index="0" speed="9.61" length="15.90" shape="163.40,333.82 163.95,337.98 165.57,341.36 168.28,343.95 172.08,345.75"/>
    </edge>
    <edge id=":B3_10" function="internal">
        <lane id=":B3_10_0" index="0" speed="11.67" length="16.32" shape="163.40,333.82 163.08,338.91 162.10,343.08 160.47,346.35 158.19,348.70"/>
    </edge>
    <edge id=":B3_11" function="internal">
        <lane id=":B3_11_0" index="0" speed="3.65" length="4.67" shape="163.40,333.82 162.60,335.02 161.80,335.42 161.00,335.02 160.20,333.82"/>
    </edge>
    <edge id=":B3_12" function="internal">
        <lane id=":B3_12_0" index="0" speed="10.58" length="13.31" shape="156.31,346.11 158.01,344.28 159.23,341.62 159.96,338.13 160.20,333.82"/>
    </edge>
    <edge id=":B3_13" function="internal">
        <lane id=":B3_13_0" index="0" speed="13.89" length="15.91" shape="156.31,346.11 169.18,336.76"/>
    </edge>
    <edge id=":B3_14" function="internal">
        <lane id=":B3_14_0" index="0" speed="11.67" length="3.52" shape="156.31,346.11 159.25,344.67 159.49,344.63"/>
    </edge>
    <edge id=":B3_15" function="internal">
        <lane id=":B3_15_0" index="0" speed="3.65" length="1.44" shape="156.31,346.11 157.75,346.05"/>
    </edge>
    <edge id=":B3_18" function="internal">
        <lane id=":B3_18_0" index="0" speed="11.67" length="12.80" shape="159.49,344.63 162.86,344.13 167.13,344.49 172.08,345.75"/>
    </edge>
    <edge id=":B3_19" function="internal">
        <lane id=":B3_19_0" index="0" speed="3.65" length="3.23" shape="157.75,346.05 158.54,346.46 158.69,347.35 158.19,348.70"/>
    </edge>
    <edge id=":B4_0" function="internal">
        <lane id=":B4_0_0" index="0" speed="10.58" length="13.31" shape="160.20,236.82 159.96,232.50 159.23,229.01 158.01,226.35 156.31,224.52"/>
    </edge>
    <edge id=":B4_1" function="internal">
        <lane id=":B4_1_0" index="0" speed="10.71" length="19.95" shape="160.20,236.82 160.88,231.59 162.92,227.35 166.32,224.10 171.09,221.84"/>
    </edge>
    <edge id=":B4_2" function="internal">
        <lane id=":B4_2_0" index="0" speed="7.38" length="17.63" shape="160.20,236.82 160.88,231.44 162.92,228.73 166.31,228.67 171.06,231.29"/>
    </edge>
    <edge id=":B4_3" function="internal">
        <lane id=":B4_3_0" index="0" speed="3.65" length="4.67" shape="160.20,236.82 161.00,235.62 161.80,235.22 162.60,235.62 163.40,236.82"/>
    </edge>
    <edge id=":B4_4" function="internal">
        <lane id=":B4_4_0" index="0" speed="5.57" length="9.38" shape="169.18,233.88 166.65,232.49 164.85,232.51 163.76,233.96 163.40,236.82"/>
    </edge>
    <edge id=":B4_5" function="internal">
        <lane id=":B4_5_0" index="0" speed="13.89" length="15.91" shape="169.18,233.88 156.31,224.52"/>
    </edge>
    <edge id=":B4_6" function="internal">
        <lane id=":B4_6_0" index="0" speed="7.38" length="5.28" shape="169.18,233.88 165.33,230.26"/>
    </edge>
    <edge id=":B4_7" function="internal">
        <lane id=":B4_7_0" index="0" speed="3.65" length="1.44" shape="169.18,233.88 168.68,232.52"/>
    </edge>
    <edge id=":B4_16" function="internal">
        <lane id=":B4_16_0" index="0" speed="7.38" length="12.35" shape="165.33,230.26 165.23,230.17 164.23,226.92 166.18,224.15 171.09,221.84"/>
    </edge>
    <edge id=":B4_17" function="internal">
        <lane id=":B4_17_0" index="0" speed="3.65" length="3.23" shape="168.68,232.52 168.83,231.64 169.62,231.23 171.06,231.29"/>
    </edge>
    <edge id=":B4_8" function="internal">
        <lane id=":B4_8_0" index="0" speed="5.57" length="9.38" shape="172.08,224.88 169.47,226.11 168.43,227.59 168.96,229.31 171.06,231.29"/>
    </edge>
    <edge id=":B4_9" function="internal">
        <lane id=":B4_9_0" index="0" speed="9.61" length="15.90" shape="172.08,224.88 168.28,226.69 165.57,229.28 163.95,232.65 163.40,236.82"/>
    </edge>
    <edge id=":B4_10" function="internal">
        <lane id=":B4_10_0" index="0" speed="11.67" length="16.32" shape="172.08,224.88 167.13,226.15 162.86,226.51 159.25,225.97 156.31,224.52"/>
    </edge>
    <edge id=":B4_11" function="internal">
        <lane id=":B4_11_0" index="0" speed="3.65" length="4.67" shape="172.08,224.88 170.69,224.49 170.06,223.86 170.19,222.97 171.09,221.84"/>
    </edge>
    <edge id=":B4_12" function="internal">
        <lane id=":B4_12_0" index="0" speed="10.58" length="13.31" shape="158.19,221.93 160.46,222.99 163.36,223.33 166.90,222.94 171.09,221.84"/>
    </edge>
    <edge id=":B4_13" function="internal">
        <lane id=":B4_13_0" index="0" speed="13.89" length="15.91" shape="158.19,221.93 171.06,231.29"/>
    </edge>
    <edge id=":B4_14" function="internal">
        <lane id=":B4_14_0" index="0" speed="11.67" length="3.52" shape="158.19,221.93 160.47,224.29 160.58,224.50"/>
    </edge>
    <edge id=":B4_15" function="internal">
        <lane id=":B4_15_0" index="0" speed="3.65" length="1.44" shape="158.19,221.93 158.69,223.29"/>
    </edge>
    <edge id=":B4_18" function="internal">
        <lane id=":B4_18_0" index="0" speed="11.67" length="12.80" shape="160.58,224.50 162.10,227.55 163.08,231.73 163.40,236.82"/>
    </edge>
    <edge id=":B4_19" function="internal">
        <lane id=":B4_19_0" index="0" speed="3.65" length="3.23" shape="158.69,223.29 158.54,224.17 157.75,224.58 156.31,224.52"/>
    </edge>
    <edge id=":B5_0" function="internal">
        <lane id=":B5_0_0" index="0" speed="5.57" length="9.38" shape="278.36,199.47 276.38,197.37 274.66,196.83 273.18,197.87 271.95,200.48"/>
    </edge>
    <edge id=":B5_1" function="internal">
        <lane id=":B5_1_0" index="0" speed="9.61" length="15.90" shape="278.36,199.47 275.47,196.42 272.17,194.64 268.45,194.14 264.32,194.91"/>
    </edge>
    <edge id=":B5_2" function="internal">
        <lane id=":B5_2_0" index="0" speed="11.67" length="16.32" shape="278.36,199.47 275.63,195.16 273.96,191.20 273.36,187.60 273.83,184.36"/>
    </edge>
    <edge id=":B5_3" function="internal">
        <lane id=":B5_3_0" index="0" speed="3.65" length="4.67" shape="278.36,199.47 278.30,198.03 278.71,197.23 279.59,197.09 280.94,197.59"/>
    </edge>
    <edge id=":B5_4" function="internal">
        <lane id=":B5_4_0" index="0" speed="10.58" length="13.31" shape="276.87,185.35 276.57,187.83 277.14,190.70 278.60,193.95 280.94,197.59"/>
    </edge>
    <edge id=":B5_5" function="internal">
        <lane id=":B5_5_0" index="0" speed="13.89" length="15.91" shape="276.87,185.35 271.95,200.48"/>
    </edge>
    <edge id=":B5_6" function="internal">
        <lane id=":B5_6_0" index="0" speed="11.67" length="3.52" shape="276.87,185.35 275.34,188.25 275.16,188.42"/>
    </edge>
    <edge id=":B5_7" function="internal">
        <lane id=":B5_7_0" index="0" speed="3.65" length="1.44" shape="276.87,185.35 275.74,186.24"/>
    </edge>
    <edge id=":B5_16" function="internal">
        <lane id=":B5_16_0" index="0" speed="11.67" length="12.80" shape="275.16,188.42 272.74,190.81 269.07,193.03 264.32,194.91"/>
    </edge>
    <edge id=":B5_17" function="internal">
        <lane id=":B5_17_0" index="0" speed="3.65" length="3.23" shape="275.74,186.24 274.85,186.38 274.22,185.75 273.83,184.36"/>
    </edge>
    <edge id=":B5_8" function="internal">
        <lane id=":B5_8_0" index="0" speed="10.58" length="13.31" shape="263.34,191.87 267.37,190.30 270.46,188.53 272.61,186.55 273.83,184.36"/>
    </edge>
    <edge id=":B5_9" function="internal">
        <lane id=":B5_9_0" index="0" speed="10.71" length="19.95" shape="263.34,191.87 268.52,190.90 273.18,191.53 277.32,193.76 280.94,197.59"/>
    </edge>
    <edge id=":B5_10" function="internal">
        <lane id=":B5_10_0" index="0" speed="7.38" length="17.63" shape="263.34,191.87 268.66,190.85 271.87,191.95 272.97,195.16 271.95,200.48"/>
    </edge>
    <edge id=":B5_11" function="internal">
        <lane id=":B5_11_0" index="0" speed="3.65" length="4.67" shape="263.34,191.87 264.72,192.26 265.35,192.89 265.22,193.78 264.32,194.91"/>
    </edge>
    <edge id=":B5_12" function="internal">
        <lane id=":B5_12_0" index="0" speed="5.57" length="9.38" shape="268.91,199.49 269.45,196.66 268.87,194.95 267.16,194.37 264.32,194.91"/>
    </edge>
    <edge id=":B5_13" function="internal">
        <lane id=":B5_13_0" index="0" speed="13.89" length="15.91" shape="268.91,199.49 273.83,184.36"/>
    </edge>
    <edge id=":B5_14" function="internal">
        <lane id=":B5_14_0" index="0" speed="7.38" length="5.28" shape="268.91,199.49 271.16,194.72"/>
    </edge>
    <edge id=":B5_15" function="internal">
        <lane id=":B5_15_0" index="0" speed="3.65" length="1.44" shape="268.91,199.49 270.04,198.60"/>
    </edge>
    <edge id=":B5_18" function="internal">
        <lane id=":B5_18_0" index="0" speed="7.38" length="12.35" shape="271.16,194.72 271.22,194.59 273.99,192.64 277.23,193.64 280.94,197.59"/>
    </edge>
    <edge id=":B5_19" function="internal">
        <lane id=":B5_19_0" index="0" speed="3.65" length="3.23" shape="270.04,198.60 270.92,198.47 271.56,199.09 271.95,200.48"/>
    </edge>
    <edge id=":C1_0" function="internal">
        <lane id=":C1_0_0" index="0" speed="10.58" length="13.31" shape="448.34,286.92 445.88,287.40 443.33,288.83 440.69,291.22 437.96,294.57"/>
    </edge>
    <edge id=":C1_1" function="internal">
        <lane id=":C1_1_0" index="0" speed="13.89" length="15.91" shape="448.34,286.92 432.42,286.92"/>
    </edge>
    <edge id=":C1_2" function="internal">
        <lane id=":C1_2_0" index="0" speed="11.67" length="3.52" shape="448.34,286.92 445.11,286.36 444.89,286.24"/>
    </edge>
    <edge id=":C1_3" function="internal">
        <lane id=":C1_3_0" index="0" speed="3.65" length="1.44" shape="448.34,286.92 447.14,286.12"/>
    </edge>
    <edge id=":C1_16" function="internal">
        <lane id=":C1_16_0" index="0" speed="11.67" length="12.80" shape="444.89,286.24 441.87,284.67 438.62,281.87 435.37,277.94"/>
    </edge>
    <edge id=":C1_17" function="internal">
        <lane id=":C1_17_0" index="0" speed="3.65" length="3.23" shape="447.14,286.12 446.74,285.32 447.14,284.52 448.34,283.72"/>
    </edge>
    <edge id=":C1_4" function="internal">
        <lane id=":C1_4_0" index="0" speed="10.58" length="13.31" shape="437.96,276.06 440.69,279.41 443.33,281.80 445.88,283.24 448.34,283.72"/>
    </edge>
    <edge id=":C1_5" function="internal">
        <lane id=":C1_5_0" index="0" speed="10.71" length="19.95" shape="437.96,276.06 440.48,280.69 441.32,285.32 440.48,289.95 437.96,294.57"/>
    </edge>
    <edge id=":C1_6" function="internal">
        <lane id=":C1_6_0" index="0" speed="7.38" length="17.63" shape="437.96,276.06 440.57,280.81 440.52,284.20 437.80,286.24 432.42,286.92"/>
    </edge>
    <edge id=":C1_7" function="internal">
        <lane id=":C1_7_0" index="0" speed="3.65" length="4.67" shape="437.96,276.06 438.02,277.50 437.60,278.29 436.72,278.44 435.37,277.94"/>
    </edge>
    <edge id=":C1_8" function="internal">
        <lane id=":C1_8_0" index="0" speed="5.57" length="9.38" shape="432.42,283.72 435.29,283.36 436.73,282.27 436.76,280.47 435.37,277.94"/>
    </edge>
    <edge id=":C1_9" function="internal">
        <lane id=":C1_9_0" index="0" speed="13.89" length="15.91" shape="432.42,283.72 448.34,283.72"/>
    </edge>
    <edge id=":C1_10" function="internal">
        <lane id=":C1_10_0" index="0" speed="7.38" length="5.28" shape="432.42,283.72 437.66,284.38"/>
    </edge>
    <edge id=":C1_11" function="internal">
        <lane id=":C1_11_0" index="0" speed="3.65" length="1.44" shape="432.42,283.72 433.62,284.52"/>
    </edge>
    <edge id=":C1_18" function="internal">
        <lane id=":C1_18_0" index="0" speed="7.38" length="12.35" shape="437.66,284.38 437.80,284.40 440.52,286.43 440.57,289.82 437.96,294.57"/>
    </edge>
    <edge id=":C1_19" function="internal">
        <lane id=":C1_19_0" index="0" speed="3.65" length="3.23" shape="433.62,284.52 434.02,285.32 433.62,286.12 432.42,286.92"/>
    </edge>
    <edge id=":C1_12" function="internal">
        <lane id=":C1_12_0" index="0" speed="5.57" length="9.38" shape="435.37,292.69 436.76,290.17 436.73,288.36 435.29,287.28 432.42,286.92"/>
    </edge>
    <edge id=":C1_13" function="internal">
        <lane id=":C1_13_0" index="0" speed="9.61" length="15.90" shape="435.37,292.69 437.38,289.01 438.05,285.32 437.38,281.63 435.37,277.94"/>
    </edge>
    <edge id=":C1_14" function="internal">
        <lane id=":C1_14_0" index="0" speed="11.67" length="16.32" shape="435.37,292.69 438.62,288.77 441.87,285.96 445.11,284.28 448.34,283.72"/>
    </edge>
    <edge id=":C1_15" function="internal">
        <lane id=":C1_15_0" index="0" speed="3.65" length="4.67" shape="435.37,292.69 436.72,292.19 437.60,292.34 438.02,293.13 437.96,294.57"/>
    </edge>
    <edge id=":C2_0" function="internal">
        <lane id=":C2_0_0" index="0" speed="10.58" length="13.31" shape="304.73,481.38 303.51,479.19 301.36,477.21 298.27,475.44 294.24,473.87"/>
    </edge>
    <edge id=":C2_1" function="internal">
        <lane id=":C2_1_0" index="0" speed="13.89" length="15.91" shape="304.73,481.38 299.81,466.25"/>
    </edge>
    <edge id=":C2_2" function="internal">
        <lane id=":C2_2_0" index="0" speed="11.67" length="3.52" shape="304.73,481.38 304.26,478.13 304.30,477.90"/>
    </edge>
    <edge id=":C2_3" function="internal">
        <lane id=":C2_3_0" index="0" speed="3.65" length="1.44" shape="304.73,481.38 305.12,479.99"/>
    </edge>
    <edge id=":C2_16" function="internal">
        <lane id=":C2_16_0" index="0" speed="11.67" length="12.80" shape="304.30,477.90 304.86,474.54 306.53,470.58 309.26,466.27"/>
    </edge>
    <edge id=":C2_17" function="internal">
        <lane id=":C2_17_0" index="0" speed="3.65" length="3.23" shape="305.12,479.99 305.75,479.36 306.64,479.49 307.77,480.39"/>
    </edge>
    <edge id=":C2_4" function="internal">
        <lane id=":C2_4_0" index="0" speed="10.58" length="13.31" shape="311.85,468.15 309.50,471.79 308.04,475.04 307.47,477.91 307.77,480.39"/>
    </edge>
    <edge id=":C2_5" function="internal">
        <lane id=":C2_5_0" index="0" speed="10.71" length="19.95" shape="311.85,468.15 308.22,471.98 304.08,474.21 299.42,474.84 294.24,473.87"/>
    </edge>
    <edge id=":C2_6" function="internal">