<?xml version="1.0" encoding="UTF-8"?>

<!-- generated on 2025-04-27 19:37:20 by Eclipse SUMO netconvert Version 1.22.0
<netconvertConfiguration xmlns:xsi="http://www.w3.org/2001/XMLSchema-instance" xsi:noNamespaceSchemaLocation="http://sumo.dlr.de/xsd/netconvertConfiguration.xsd">

    <input>
        <node-files value="curriculum_scenarios\t_junction_2lane\t_junction_2lane.nod.xml"/>
        <edge-files value="curriculum_scenarios\t_junction_2lane\t_junction_2lane.edg.xml"/>
    </input>

    <output>
        <output-file value="curriculum_scenarios\t_junction_2lane\t_junction_2lane.net.xml"/>
    </output>

    <tls_building>
        <tls.green.time value="30"/>
        <tls.yellow.time value="4"/>
        <tls.red.time value="1"/>
    </tls_building>

    <junctions>
        <no-turnarounds value="true"/>
    </junctions>

</netconvertConfiguration>
-->

<net version="1.20" junctionCornerDetail="5" limitTurnSpeed="5.50" xmlns:xsi="http://www.w3.org/2001/XMLSchema-instance" xsi:noNamespaceSchemaLocation="http://sumo.dlr.de/xsd/net_file.xsd">

    <location netOffset="200.00,0.00" convBoundary="0.00,0.00,400.00,200.00" origBoundary="-200.00,0.00,200.00,200.00" projParameter="!"/>

    <edge id=":center_0" function="internal">
        <lane id=":center_0_0" index="0" speed="6.51" length="9.03" shape="195.20,10.40 194.85,7.95 193.80,6.20 192.05,5.15 189.60,4.80"/>
        <lane id=":center_0_1" index="1" speed="8.00" length="14.19" shape="198.40,10.40 197.85,6.55 196.20,3.80 193.45,2.15 189.60,1.60"/>
    </edge>
    <edge id=":center_2" function="internal">
        <lane id=":center_2_0" index="0" speed="9.26" length="19.35" shape="198.40,10.40 199.15,5.15 201.40,1.40 205.15,-0.85 210.40,-1.60"/>
    </edge>
    <edge id=":center_3" function="internal">
        <lane id=":center_3_0" index="0" speed="6.51" length="9.03" shape="210.40,4.80 207.95,5.15 206.20,6.20 205.15,7.95 204.80,10.40"/>
    </edge>
    <edge id=":center_4" function="internal">
        <lane id=":center_4_0" index="0" speed="13.89" length="20.80" shape="210.40,4.80 189.60,4.80"/>
        <lane id=":center_4_1" index="1" speed="13.89" length="20.80" shape="210.40,1.60 189.60,1.60"/>
    </edge>
    <edge id=":center_6" function="internal">
        <lane id=":center_6_0" index="0" speed="13.89" length="20.80" shape="189.60,-4.80 210.40,-4.80"/>
        <lane id=":center_6_1" index="1" speed="13.89" length="20.80" shape="189.60,-1.60 210.40,-1.60"/>
    </edge>
    <edge id=":center_8" function="internal">
        <lane id=":center_8_0" index="0" speed="9.26" length="5.01" shape="189.60,-1.60 194.56,-0.89"/>
    </edge>
    <edge id=":center_9" function="internal">
        <lane id=":center_9_0" index="0" speed="9.26" length="14.34" shape="194.56,-0.89 194.85,-0.85 198.60,1.40 200.85,5.15 201.60,10.40"/>
    </edge>

    <edge id="center_to_east" from="center" to="east" priority="100">
        <lane id="center_to_east_0" index="0" speed="13.89" length="189.60" shape="210.40,-4.80 400.00,-4.80"/>
        <lane id="center_to_east_1" index="1" speed="13.89" length="189.60" shape="210.40,-1.60 400.00,-1.60"/>
    </edge>
    <edge id="center_to_north" from="center" to="north" priority="100">
        <lane id="center_to_north_0" index="0" speed="13.89" length="189.60" shape="204.80,10.40 204.80,200.00"/>
        <lane id="center_to_north_1" index="1" speed="13.89" length="189.60" shape="201.60,10.40 201.60,200.00"/>
    </edge>
    <edge id="center_to_west" from="center" to="west" priority="100">
        <lane id="center_to_west_0" index="0" speed="13.89" length="189.60" shape="189.60,4.80 0.00,4.80"/>
        <lane id="center_to_west_1" index="1" speed="13.89" length="189.60" shape="189.60,1.60 0.00,1.60"/>
    </edge>
    <edge id="east_to_center" from="east" to="center" priority="100">
        <lane id="east_to_center_0" index="0" speed="13.89" length="189.60" shape="400.00,4.80 210.40,4.80"/>
        <lane id="east_to_center_1" index="1" speed="13.89" length="189.60" shape="400.00,1.60 210.40,1.60"/>
    </edge>
    <edge id="north_to_center" from="north" to="center" priority="100">
        <lane id="north_to_center_0" index="0" speed="13.89" length="189.60" shape="195.20,200.00 195.20,10.40"/>
        <lane id="north_to_center_1" index="1" speed="13.89" length="189.60" shape="198.40,200.00 198.40,10.40"/>
    </edge>
    <edge id="west_to_center" from="west" to="center" priority="100">
        <lane id="west_to_center_0" index="0" speed="13.89" length="189.60" shape="0.00,-4.80 189.60,-4.80"/>
        <lane id="west_to_center_1" index="1" speed="13.89" length="189.60" shape="0.00,-1.60 189.60,-1.60"/>
    </edge>

    <tlLogic id="center" type="static" programID="0" offset="0">
        <phase duration="30" state="rrrGGGGGg"/>
        <phase duration="4"  state="rrrGyyyyy"/>
        <phase duration="30" state="GGGGrrrrr"/>
        <phase duration="4"  state="yyyGrrrrr"/>
    </tlLogic>

    <junction id="center" type="traffic_light" x="200.00" y="0.00" incLanes="north_to_center_0 north_to_center_1 east_to_center_0 east_to_center_1 west_to_center_0 west_to_center_1" intLanes=":center_0_0 :center_0_1 :center_2_0 :center_3_0 :center_4_0 :center_4_1 :center_6_0 :center_6_1 :center_9_0" shape="193.60,10.40 206.40,10.40 206.84,8.18 207.40,7.40 208.18,6.84 209.18,6.51 210.40,6.40 210.40,-6.40 189.60,-6.40 189.60,6.40 191.82,6.84 192.60,7.40 193.16,8.18 193.49,9.18">
        <request index="0" response="000110000" foes="000110000" cont="0"/>
        <request index="1" response="000110000" foes="000110000" cont="0"/>
        <request index="2" response="111110000" foes="111110000" cont="0"/>
        <request index="3" response="000000000" foes="000000000" cont="0"/>
        <request index="4" response="000000000" foes="100000111" cont="0"/>
        <request index="5" response="000000000" foes="100000111" cont="0"/>
        <request index="6" response="000000000" foes="000000100" cont="0"/>
        <request index="7" response="000000000" foes="000000100" cont="0"/>
        <request index="8" response="000110000" foes="000110100" cont="1"/>
    </junction>
    <junction id="east" type="dead_end" x="400.00" y="0.00" incLanes="center_to_east_0 center_to_east_1" intLanes="" shape="400.00,0.00 400.00,-6.40 400.00,0.00"/>
    <junction id="north" type="dead_end" x="200.00" y="200.00" incLanes="center_to_north_0 center_to_north_1" intLanes="" shape="200.00,200.00 206.40,200.00 200.00,200.00"/>
    <junction id="west" type="dead_end" x="0.00" y="0.00" incLanes="center_to_west_0 center_to_west_1" intLanes="" shape="0.00,0.00 0.00,6.40 0.00,0.00"/>

    <junction id=":center_9_0" type="internal" x="194.56" y="-0.89" incLanes=":center_8_0 east_to_center_0 east_to_center_1" intLanes=":center_2_0 :center_4_0 :center_4_1"/>

    <connection from="east_to_center" to="center_to_north" fromLane="0" toLane="0" via=":center_3_0" tl="center" linkIndex="3" dir="r" state="O"/>
    <connection from="east_to_center" to="center_to_west" fromLane="0" toLane="0" via=":center_4_0" tl="center" linkIndex="4" dir="s" state="O"/>
    <connection from="east_to_center" to="center_to_west" fromLane="1" toLane="1" via=":center_4_1" tl="center" linkIndex="5" dir="s" state="O"/>
    <connection from="north_to_center" to="center_to_west" fromLane="0" toLane="0" via=":center_0_0" tl="center" linkIndex="0" dir="r" state="o"/>
    <connection from="north_to_center" to="center_to_west" fromLane="1" toLane="1" via=":center_0_1" tl="center" linkIndex="1" dir="r" state="o"/>
    <connection from="north_to_center" to="center_to_east" fromLane="1" toLane="1" via=":center_2_0" tl="center" linkIndex="2" dir="l" state="o"/>
    <connection from="west_to_center" to="center_to_east" fromLane="0" toLane="0" via=":center_6_0" tl="center" linkIndex="6" dir="s" state="O"/>
    <connection from="west_to_center" to="center_to_east" fromLane="1" toLane="1" via=":center_6_1" tl="center" linkIndex="7" dir="s" state="O"/>
    <connection from="west_to_center" to="center_to_north" fromLane="1" toLane="1" via=":center_8_0" tl="center" linkIndex="8" dir="l" state="o"/>

    <connection from=":center_0" to="center_to_west" fromLane="0" toLane="0" dir="r" state="M"/>
    <connection from=":center_0" to="center_to_west" fromLane="1" toLane="1" dir="r" state="M"/>
    <connection from=":center_2" to="center_to_east" fromLane="0" toLane="1" dir="l" state="M"/>
    <connection from=":center_3" to="center_to_north" fromLane="0" toLane="0" dir="r" state="M"/>
    <connection from=":center_4" to="center_to_west" fromLane="0" toLane="0" dir="s" state="M"/>
    <connection from=":center_4" to="center_to_west" fromLane="1" toLane="1" dir="s" state="M"/>
    <connection from=":center_6" to="center_to_east" fromLane="0" toLane="0" dir="s" state="M"/>
    <connection from=":center_6" to="center_to_east" fromLane="1" toLane="1" dir="s" state="M"/>
    <connection from=":center_8" to="center_to_north" fromLane="0" toLane="1" via=":center_9_0" dir="l" state="m"/>
    <connection from=":center_9" to="center_to_north" fromLane="0" toLane="1" dir="l" state="M"/>

</net>
