<?xml version='1.0' encoding='utf-8'?>
<edges><edge id="edge_0_0_to_1_0" from="node_0_0" to="node_1_0" numLanes="1" speed="13.89" /><edge id="edge_1_0_to_0_0" from="node_1_0" to="node_0_0" numLanes="1" speed="13.89" /><edge id="edge_0_0_to_0_1" from="node_0_0" to="node_0_1" numLanes="1" speed="13.89" /><edge id="edge_0_1_to_0_0" from="node_0_1" to="node_0_0" numLanes="1" speed="13.89" /><edge id="edge_0_1_to_1_1" from="node_0_1" to="node_1_1" numLanes="1" speed="13.89" /><edge id="edge_1_1_to_0_1" from="node_1_1" to="node_0_1" numLanes="1" speed="13.89" /><edge id="edge_0_1_to_0_2" from="node_0_1" to="node_0_2" numLanes="1" speed="13.89" /><edge id="edge_0_2_to_0_1" from="node_0_2" to="node_0_1" numLanes="1" speed="13.89" /><edge id="edge_0_2_to_1_2" from="node_0_2" to="node_1_2" numLanes="1" speed="13.89" /><edge id="edge_1_2_to_0_2" from="node_1_2" to="node_0_2" numLanes="1" speed="13.89" /><edge id="edge_0_2_to_0_3" from="node_0_2" to="node_0_3" numLanes="1" speed="13.89" /><edge id="edge_0_3_to_0_2" from="node_0_3" to="node_0_2" numLanes="1" speed="13.89" /><edge id="edge_0_3_to_1_3" from="node_0_3" to="node_1_3" numLanes="1" speed="13.89" /><edge id="edge_1_3_to_0_3" from="node_1_3" to="node_0_3" numLanes="1" speed="13.89" /><edge id="edge_0_3_to_0_4" from="node_0_3" to="node_0_4" numLanes="1" speed="13.89" /><edge id="edge_0_4_to_0_3" from="node_0_4" to="node_0_3" numLanes="1" speed="13.89" /><edge id="edge_0_4_to_1_4" from="node_0_4" to="node_1_4" numLanes="1" speed="13.89" /><edge id="edge_1_4_to_0_4" from="node_1_4" to="node_0_4" numLanes="1" speed="13.89" /><edge id="edge_1_0_to_2_0" from="node_1_0" to="node_2_0" numLanes="1" speed="13.89" /><edge id="edge_2_0_to_1_0" from="node_2_0" to="node_1_0" numLanes="1" speed="13.89" /><edge id="edge_1_0_to_1_1" from="node_1_0" to="node_1_1" numLanes="1" speed="13.89" /><edge id="edge_1_1_to_1_0" from="node_1_1" to="node_1_0" numLanes="1" speed="13.89" /><edge id="edge_1_1_to_2_1" from="node_1_1" to="node_2_1" numLanes="1" speed="13.89" /><edge id="edge_2_1_to_1_1" from="node_2_1" to="node_1_1" numLanes="1" speed="13.89" /><edge id="edge_1_1_to_1_2" from="node_1_1" to="node_1_2" numLanes="1" speed="13.89" /><edge id="edge_1_2_to_1_1" from="node_1_2" to="node_1_1" numLanes="1" speed="13.89" /><edge id="edge_1_2_to_2_2" from="node_1_2" to="node_2_2" numLanes="1" speed="13.89" /><edge id="edge_2_2_to_1_2" from="node_2_2" to="node_1_2" numLanes="1" speed="13.89" /><edge id="edge_1_2_to_1_3" from="node_1_2" to="node_1_3" numLanes="1" speed="13.89" /><edge id="edge_1_3_to_1_2" from="node_1_3" to="node_1_2" numLanes="1" speed="13.89" /><edge id="edge_1_3_to_2_3" from="node_1_3" to="node_2_3" numLanes="1" speed="13.89" /><edge id="edge_2_3_to_1_3" from="node_2_3" to="node_1_3" numLanes="1" speed="13.89" /><edge id="edge_1_3_to_1_4" from="node_1_3" to="node_1_4" numLanes="1" speed="13.89" /><edge id="edge_1_4_to_1_3" from="node_1_4" to="node_1_3" numLanes="1" speed="13.89" /><edge id="edge_1_4_to_2_4" from="node_1_4" to="node_2_4" numLanes="1" speed="13.89" /><edge id="edge_2_4_to_1_4" from="node_2_4" to="node_1_4" numLanes="1" speed="13.89" /><edge id="edge_2_0_to_3_0" from="node_2_0" to="node_3_0" numLanes="1" speed="13.89" /><edge id="edge_3_0_to_2_0" from="node_3_0" to="node_2_0" numLanes="1" speed="13.89" /><edge id="edge_2_0_to_2_1" from="node_2_0" to="node_2_1" numLanes="1" speed="13.89" /><edge id="edge_2_1_to_2_0" from="node_2_1" to="node_2_0" numLanes="1" speed="13.89" /><edge id="edge_2_1_to_3_1" from="node_2_1" to="node_3_1" numLanes="1" speed="13.89" /><edge id="edge_3_1_to_2_1" from="node_3_1" to="node_2_1" numLanes="1" speed="13.89" /><edge id="edge_2_1_to_2_2" from="node_2_1" to="node_2_2" numLanes="1" speed="13.89" /><edge id="edge_2_2_to_2_1" from="node_2_2" to="node_2_1" numLanes="1" speed="13.89" /><edge id="edge_2_2_to_3_2" from="node_2_2" to="node_3_2" numLanes="1" speed="13.89" /><edge id="edge_3_2_to_2_2" from="node_3_2" to="node_2_2" numLanes="1" speed="13.89" /><edge id="edge_2_2_to_2_3" from="node_2_2" to="node_2_3" numLanes="1" speed="13.89" /><edge id="edge_2_3_to_2_2" from="node_2_3" to="node_2_2" numLanes="1" speed="13.89" /><edge id="edge_2_3_to_3_3" from="node_2_3" to="node_3_3" numLanes="1" speed="13.89" /><edge id="edge_3_3_to_2_3" from="node_3_3" to="node_2_3" numLanes="1" speed="13.89" /><edge id="edge_2_3_to_2_4" from="node_2_3" to="node_2_4" numLanes="1" speed="13.89" /><edge id="edge_2_4_to_2_3" from="node_2_4" to="node_2_3" numLanes="1" speed="13.89" /><edge id="edge_2_4_to_3_4" from="node_2_4" to="node_3_4" numLanes="1" speed="13.89" /><edge id="edge_3_4_to_2_4" from="node_3_4" to="node_2_4" numLanes="1" speed="13.89" /><edge id="edge_3_0_to_4_0" from="node_3_0" to="node_4_0" numLanes="1" speed="13.89" /><edge id="edge_4_0_to_3_0" from="node_4_0" to="node_3_0" numLanes="1" speed="13.89" /><edge id="edge_3_0_to_3_1" from="node_3_0" to="node_3_1" numLanes="1" speed="13.89" /><edge id="edge_3_1_to_3_0" from="node_3_1" to="node_3_0" numLanes="1" speed="13.89" /><edge id="edge_3_1_to_4_1" from="node_3_1" to="node_4_1" numLanes="1" speed="13.89" /><edge id="edge_4_1_to_3_1" from="node_4_1" to="node_3_1" numLanes="1" speed="13.89" /><edge id="edge_3_1_to_3_2" from="node_3_1" to="node_3_2" numLanes="1" speed="13.89" /><edge id="edge_3_2_to_3_1" from="node_3_2" to="node_3_1" numLanes="1" speed="13.89" /><edge id="edge_3_2_to_4_2" from="node_3_2" to="node_4_2" numLanes="1" speed="13.89" /><edge id="edge_4_2_to_3_2" from="node_4_2" to="node_3_2" numLanes="1" speed="13.89" /><edge id="edge_3_2_to_3_3" from="node_3_2" to="node_3_3" numLanes="1" speed="13.89" /><edge id="edge_3_3_to_3_2" from="node_3_3" to="node_3_2" numLanes="1" speed="13.89" /><edge id="edge_3_3_to_4_3" from="node_3_3" to="node_4_3" numLanes="1" speed="13.89" /><edge id="edge_4_3_to_3_3" from="node_4_3" to="node_3_3" numLanes="1" speed="13.89" /><edge id="edge_3_3_to_3_4" from="node_3_3" to="node_3_4" numLanes="1" speed="13.89" /><edge id="edge_3_4_to_3_3" from="node_3_4" to="node_3_3" numLanes="1" speed="13.89" /><edge id="edge_3_4_to_4_4" from="node_3_4" to="node_4_4" numLanes="1" speed="13.89" /><edge id="edge_4_4_to_3_4" from="node_4_4" to="node_3_4" numLanes="1" speed="13.89" /><edge id="edge_4_0_to_4_1" from="node_4_0" to="node_4_1" numLanes="1" speed="13.89" /><edge id="edge_4_1_to_4_0" from="node_4_1" to="node_4_0" numLanes="1" speed="13.89" /><edge id="edge_4_1_to_4_2" from="node_4_1" to="node_4_2" numLanes="1" speed="13.89" /><edge id="edge_4_2_to_4_1" from="node_4_2" to="node_4_1" numLanes="1" speed="13.89" /><edge id="edge_4_2_to_4_3" from="node_4_2" to="node_4_3" numLanes="1" speed="13.89" /><edge id="edge_4_3_to_4_2" from="node_4_3" to="node_4_2" numLanes="1" speed="13.89" /><edge id="edge_4_3_to_4_4" from="node_4_3" to="node_4_4" numLanes="1" speed="13.89" /><edge id="edge_4_4_to_4_3" from="node_4_4" to="node_4_3" numLanes="1" speed="13.89" /></edges>