<?xml version="1.0" encoding="UTF-8"?>

<!-- generated on 2025-04-27 19:37:30 by Eclipse SUMO netconvert Version 1.22.0
<netconvertConfiguration xmlns:xsi="http://www.w3.org/2001/XMLSchema-instance" xsi:noNamespaceSchemaLocation="http://sumo.dlr.de/xsd/netconvertConfiguration.xsd">

    <input>
        <node-files value="curriculum_scenarios\grid_5x5_2lane\grid_5x5_2lane.nod.xml"/>
        <edge-files value="curriculum_scenarios\grid_5x5_2lane\grid_5x5_2lane.edg.xml"/>
    </input>

    <output>
        <output-file value="curriculum_scenarios\grid_5x5_2lane\grid_5x5_2lane.net.xml"/>
    </output>

    <tls_building>
        <tls.green.time value="30"/>
        <tls.yellow.time value="4"/>
        <tls.red.time value="1"/>
    </tls_building>

    <junctions>
        <no-turnarounds value="true"/>
    </junctions>

</netconvertConfiguration>
-->

<net version="1.20" junctionCornerDetail="5" limitTurnSpeed="5.50" xmlns:xsi="http://www.w3.org/2001/XMLSchema-instance" xsi:noNamespaceSchemaLocation="http://sumo.dlr.de/xsd/net_file.xsd">

    <location netOffset="0.00,0.00" convBoundary="0.00,0.00,800.00,800.00" origBoundary="0.00,0.00,800.00,800.00" projParameter="!"/>

    <edge id=":node_0_0_0" function="internal">
        <lane id=":node_0_0_0_0" index="0" speed="8.96" length="18.06" shape="-4.80,6.40 -4.10,1.50 -2.00,-2.00 1.50,-4.10 6.40,-4.80"/>
        <lane id=":node_0_0_0_1" index="1" speed="7.66" length="12.90" shape="-1.60,6.40 -1.10,2.90 0.40,0.40 2.90,-1.10 6.40,-1.60"/>
    </edge>
    <edge id=":node_0_0_2" function="internal">
        <lane id=":node_0_0_2_0" index="0" speed="3.90" length="2.58" shape="6.40,4.80 5.70,4.90 5.20,5.20 4.90,5.70 4.80,6.40"/>
        <lane id=":node_0_0_2_1" index="1" speed="6.08" length="7.74" shape="6.40,1.60 4.30,1.90 2.80,2.80 1.90,4.30 1.60,6.40"/>
    </edge>
    <edge id=":node_0_1_0" function="internal">
        <lane id=":node_0_1_0_0" index="0" speed="13.89" length="20.80" shape="-4.80,210.40 -4.80,189.60"/>
        <lane id=":node_0_1_0_1" index="1" speed="13.89" length="20.80" shape="-1.60,210.40 -1.60,189.60"/>
    </edge>
    <edge id=":node_0_1_2" function="internal">
        <lane id=":node_0_1_2_0" index="0" speed="9.26" length="5.01" shape="-1.60,210.40 -0.89,205.44"/>
    </edge>
    <edge id=":node_0_1_9" function="internal">
        <lane id=":node_0_1_9_0" index="0" speed="9.26" length="14.34" shape="-0.89,205.44 -0.85,205.15 1.40,201.40 5.15,199.15 10.40,198.40"/>
    </edge>
    <edge id=":node_0_1_3" function="internal">
        <lane id=":node_0_1_3_0" index="0" speed="6.51" length="9.03" shape="10.40,204.80 7.95,205.15 6.20,206.20 5.15,207.95 4.80,210.40"/>
        <lane id=":node_0_1_3_1" index="1" speed="8.00" length="14.19" shape="10.40,201.60 6.55,202.15 3.80,203.80 2.15,206.55 1.60,210.40"/>
    </edge>
    <edge id=":node_0_1_5" function="internal">
        <lane id=":node_0_1_5_0" index="0" speed="9.26" length="19.35" shape="10.40,201.60 5.15,200.85 1.40,198.60 -0.85,194.85 -1.60,189.60"/>
    </edge>
    <edge id=":node_0_1_6" function="internal">
        <lane id=":node_0_1_6_0" index="0" speed="6.51" length="9.03" shape="4.80,189.60 5.15,192.05 6.20,193.80 7.95,194.85 10.40,195.20"/>
    </edge>
    <edge id=":node_0_1_7" function="internal">
        <lane id=":node_0_1_7_0" index="0" speed="13.89" length="20.80" shape="4.80,189.60 4.80,210.40"/>
        <lane id=":node_0_1_7_1" index="1" speed="13.89" length="20.80" shape="1.60,189.60 1.60,210.40"/>
    </edge>
    <edge id=":node_0_2_0" function="internal">
        <lane id=":node_0_2_0_0" index="0" speed="13.89" length="20.80" shape="-4.80,410.40 -4.80,389.60"/>
        <lane id=":node_0_2_0_1" index="1" speed="13.89" length="20.80" shape="-1.60,410.40 -1.60,389.60"/>
    </edge>
    <edge id=":node_0_2_2" function="internal">
        <lane id=":node_0_2_2_0" index="0" speed="9.26" length="5.01" shape="-1.60,410.40 -0.89,405.44"/>
    </edge>
    <edge id=":node_0_2_9" function="internal">
        <lane id=":node_0_2_9_0" index="0" speed="9.26" length="14.34" shape="-0.89,405.44 -0.85,405.15 1.40,401.40 5.15,399.15 10.40,398.40"/>
    </edge>
    <edge id=":node_0_2_3" function="internal">
        <lane id=":node_0_2_3_0" index="0" speed="6.51" length="9.03" shape="10.40,404.80 7.95,405.15 6.20,406.20 5.15,407.95 4.80,410.40"/>
        <lane id=":node_0_2_3_1" index="1" speed="8.00" length="14.19" shape="10.40,401.60 6.55,402.15 3.80,403.80 2.15,406.55 1.60,410.40"/>
    </edge>
    <edge id=":node_0_2_5" function="internal">
        <lane id=":node_0_2_5_0" index="0" speed="9.26" length="19.35" shape="10.40,401.60 5.15,400.85 1.40,398.60 -0.85,394.85 -1.60,389.60"/>
    </edge>
    <edge id=":node_0_2_6" function="internal">
        <lane id=":node_0_2_6_0" index="0" speed="6.51" length="9.03" shape="4.80,389.60 5.15,392.05 6.20,393.80 7.95,394.85 10.40,395.20"/>
    </edge>
    <edge id=":node_0_2_7" function="internal">
        <lane id=":node_0_2_7_0" index="0" speed="13.89" length="20.80" shape="4.80,389.60 4.80,410.40"/>
        <lane id=":node_0_2_7_1" index="1" speed="13.89" length="20.80" shape="1.60,389.60 1.60,410.40"/>
    </edge>
    <edge id=":node_0_3_0" function="internal">
        <lane id=":node_0_3_0_0" index="0" speed="13.89" length="20.80" shape="-4.80,610.40 -4.80,589.60"/>
        <lane id=":node_0_3_0_1" index="1" speed="13.89" length="20.80" shape="-1.60,610.40 -1.60,589.60"/>
    </edge>
    <edge id=":node_0_3_2" function="internal">
        <lane id=":node_0_3_2_0" index="0" speed="9.26" length="5.01" shape="-1.60,610.40 -0.89,605.44"/>
    </edge>
    <edge id=":node_0_3_9" function="internal">
        <lane id=":node_0_3_9_0" index="0" speed="9.26" length="14.34" shape="-0.89,605.44 -0.85,605.15 1.40,601.40 5.15,599.15 10.40,598.40"/>
    </edge>
    <edge id=":node_0_3_3" function="internal">
        <lane id=":node_0_3_3_0" index="0" speed="6.51" length="9.03" shape="10.40,604.80 7.95,605.15 6.20,606.20 5.15,607.95 4.80,610.40"/>
        <lane id=":node_0_3_3_1" index="1" speed="8.00" length="14.19" shape="10.40,601.60 6.55,602.15 3.80,603.80 2.15,606.55 1.60,610.40"/>
    </edge>
    <edge id=":node_0_3_5" function="internal">
        <lane id=":node_0_3_5_0" index="0" speed="9.26" length="19.35" shape="10.40,601.60 5.15,600.85 1.40,598.60 -0.85,594.85 -1.60,589.60"/>
    </edge>
    <edge id=":node_0_3_6" function="internal">
        <lane id=":node_0_3_6_0" index="0" speed="6.51" length="9.03" shape="4.80,589.60 5.15,592.05 6.20,593.80 7.95,594.85 10.40,595.20"/>
    </edge>
    <edge id=":node_0_3_7" function="internal">
        <lane id=":node_0_3_7_0" index="0" speed="13.89" length="20.80" shape="4.80,589.60 4.80,610.40"/>
        <lane id=":node_0_3_7_1" index="1" speed="13.89" length="20.80" shape="1.60,589.60 1.60,610.40"/>
    </edge>
    <edge id=":node_0_4_0" function="internal">
        <lane id=":node_0_4_0_0" index="0" speed="8.96" length="18.06" shape="6.40,804.80 1.50,804.10 -2.00,802.00 -4.10,798.50 -4.80,793.60"/>
        <lane id=":node_0_4_0_1" index="1" speed="7.66" length="12.90" shape="6.40,801.60 2.90,801.10 0.40,799.60 -1.10,797.10 -1.60,793.60"/>
    </edge>
    <edge id=":node_0_4_2" function="internal">
        <lane id=":node_0_4_2_0" index="0" speed="3.90" length="2.58" shape="4.80,793.60 4.90,794.30 5.20,794.80 5.70,795.10 6.40,795.20"/>
        <lane id=":node_0_4_2_1" index="1" speed="6.08" length="7.74" shape="1.60,793.60 1.90,795.70 2.80,797.20 4.30,798.10 6.40,798.40"/>
    </edge>
    <edge id=":node_1_0_0" function="internal">
        <lane id=":node_1_0_0_0" index="0" speed="6.51" length="9.03" shape="195.20,10.40 194.85,7.95 193.80,6.20 192.05,5.15 189.60,4.80"/>
        <lane id=":node_1_0_0_1" index="1" speed="8.00" length="14.19" shape="198.40,10.40 197.85,6.55 196.20,3.80 193.45,2.15 189.60,1.60"/>
    </edge>
    <edge id=":node_1_0_2" function="internal">
        <lane id=":node_1_0_2_0" index="0" speed="9.26" length="19.35" shape="198.40,10.40 199.15,5.15 201.40,1.40 205.15,-0.85 210.40,-1.60"/>
    </edge>
    <edge id=":node_1_0_3" function="internal">
        <lane id=":node_1_0_3_0" index="0" speed="6.51" length="9.03" shape="210.40,4.80 207.95,5.15 206.20,6.20 205.15,7.95 204.80,10.40"/>
    </edge>
    <edge id=":node_1_0_4" function="internal">
        <lane id=":node_1_0_4_0" index="0" speed="13.89" length="20.80" shape="210.40,4.80 189.60,4.80"/>
        <lane id=":node_1_0_4_1" index="1" speed="13.89" length="20.80" shape="210.40,1.60 189.60,1.60"/>
    </edge>
    <edge id=":node_1_0_6" function="internal">
        <lane id=":node_1_0_6_0" index="0" speed="13.89" length="20.80" shape="189.60,-4.80 210.40,-4.80"/>
        <lane id=":node_1_0_6_1" index="1" speed="13.89" length="20.80" shape="189.60,-1.60 210.40,-1.60"/>
    </edge>
    <edge id=":node_1_0_8" function="internal">
        <lane id=":node_1_0_8_0" index="0" speed="9.26" length="5.01" shape="189.60,-1.60 194.56,-0.89"/>
    </edge>
    <edge id=":node_1_0_9" function="internal">
        <lane id=":node_1_0_9_0" index="0" speed="9.26" length="14.34" shape="194.56,-0.89 194.85,-0.85 198.60,1.40 200.85,5.15 201.60,10.40"/>
    </edge>
    <edge id=":node_1_1_0" function="internal">
        <lane id=":node_1_1_0_0" index="0" speed="6.51" length="9.03" shape="195.20,210.40 194.85,207.95 193.80,206.20 192.05,205.15 189.60,204.80"/>
    </edge>
    <edge id=":node_1_1_1" function="internal">
        <lane id=":node_1_1_1_0" index="0" speed="13.89" length="20.80" shape="195.20,210.40 195.20,189.60"/>
        <lane id=":node_1_1_1_1" index="1" speed="13.89" length="20.80" shape="198.40,210.40 198.40,189.60"/>
    </edge>
    <edge id=":node_1_1_3" function="internal">
        <lane id=":node_1_1_3_0" index="0" speed="9.26" length="5.01" shape="198.40,210.40 199.11,205.44"/>
    </edge>
    <edge id=":node_1_1_16" function="internal">
        <lane id=":node_1_1_16_0" index="0" speed="9.26" length="14.34" shape="199.11,205.44 199.15,205.15 201.40,201.40 205.15,199.15 210.40,198.40"/>
    </edge>
    <edge id=":node_1_1_4" function="internal">
        <lane id=":node_1_1_4_0" index="0" speed="6.51" length="9.03" shape="210.40,204.80 207.95,205.15 206.20,206.20 205.15,207.95 204.80,210.40"/>
    </edge>
    <edge id=":node_1_1_5" function="internal">
        <lane id=":node_1_1_5_0" index="0" speed="13.89" length="20.80" shape="210.40,204.80 189.60,204.80"/>
        <lane id=":node_1_1_5_1" index="1" speed="13.89" length="20.80" shape="210.40,201.60 189.60,201.60"/>
    </edge>
    <edge id=":node_1_1_7" function="internal">
        <lane id=":node_1_1_7_0" index="0" speed="9.26" length="5.01" shape="210.40,201.60 205.44,200.89"/>
    </edge>
    <edge id=":node_1_1_17" function="internal">
        <lane id=":node_1_1_17_0" index="0" speed="9.26" length="14.34" shape="205.44,200.89 205.15,200.85 201.40,198.60 199.15,194.85 198.40,189.60"/>
    </edge>
    <edge id=":node_1_1_8" function="internal">
        <lane id=":node_1_1_8_0" index="0" speed="6.51" length="9.03" shape="204.80,189.60 205.15,192.05 206.20,193.80 207.95,194.85 210.40,195.20"/>
    </edge>
    <edge id=":node_1_1_9" function="internal">
        <lane id=":node_1_1_9_0" index="0" speed="13.89" length="20.80" shape="204.80,189.60 204.80,210.40"/>
        <lane id=":node_1_1_9_1" index="1" speed="13.89" length="20.80" shape="201.60,189.60 201.60,210.40"/>
    </edge>
    <edge id=":node_1_1_11" function="internal">
        <lane id=":node_1_1_11_0" index="0" speed="9.26" length="5.01" shape="201.60,189.60 200.89,194.56"/>
    </edge>
    <edge id=":node_1_1_18" function="internal">
        <lane id=":node_1_1_18_0" index="0" speed="9.26" length="14.34" shape="200.89,194.56 200.85,194.85 198.60,198.60 194.85,200.85 189.60,201.60"/>
    </edge>
    <edge id=":node_1_1_12" function="internal">
        <lane id=":node_1_1_12_0" index="0" speed="6.51" length="9.03" shape="189.60,195.20 192.05,194.85 193.80,193.80 194.85,192.05 195.20,189.60"/>
    </edge>
    <edge id=":node_1_1_13" function="internal">
        <lane id=":node_1_1_13_0" index="0" speed="13.89" length="20.80" shape="189.60,195.20 210.40,195.20"/>
        <lane id=":node_1_1_13_1" index="1" speed="13.89" length="20.80" shape="189.60,198.40 210.40,198.40"/>
    </edge>
    <edge id=":node_1_1_15" function="internal">
        <lane id=":node_1_1_15_0" index="0" speed="9.26" length="5.01" shape="189.60,198.40 194.56,199.11"/>
    </edge>
    <edge id=":node_1_1_19" function="internal">
        <lane id=":node_1_1_19_0" index="0" speed="9.26" length="14.34" shape="194.56,199.11 194.85,199.15 198.60,201.40 200.85,205.15 201.60,210.40"/>
    </edge>
    <edge id=":node_1_2_0" function="internal">
        <lane id=":node_1_2_0_0" index="0" speed="6.51" length="9.03" shape="195.20,410.40 194.85,407.95 193.80,406.20 192.05,405.15 189.60,404.80"/>
    </edge>
    <edge id=":node_1_2_1" function="internal">
        <lane id=":node_1_2_1_0" index="0" speed="13.89" length="20.80" shape="195.20,410.40 195.20,389.60"/>
        <lane id=":node_1_2_1_1" index="1" speed="13.89" length="20.80" shape="198.40,410.40 198.40,389.60"/>
    </edge>
    <edge id=":node_1_2_3" function="internal">
        <lane id=":node_1_2_3_0" index="0" speed="9.26" length="5.01" shape="198.40,410.40 199.11,405.44"/>
    </edge>
    <edge id=":node_1_2_16" function="internal">
        <lane id=":node_1_2_16_0" index="0" speed="9.26" length="14.34" shape="199.11,405.44 199.15,405.15 201.40,401.40 205.15,399.15 210.40,398.40"/>
    </edge>
    <edge id=":node_1_2_4" function="internal">
        <lane id=":node_1_2_4_0" index="0" speed="6.51" length="9.03" shape="210.40,404.80 207.95,405.15 206.20,406.20 205.15,407.95 204.80,410.40"/>
    </edge>
    <edge id=":node_1_2_5" function="internal">
        <lane id=":node_1_2_5_0" index="0" speed="13.89" length="20.80" shape="210.40,404.80 189.60,404.80"/>
        <lane id=":node_1_2_5_1" index="1" speed="13.89" length="20.80" shape="210.40,401.60 189.60,401.60"/>
    </edge>
    <edge id=":node_1_2_7" function="internal">
        <lane id=":node_1_2_7_0" index="0" speed="9.26" length="5.01" shape="210.40,401.60 205.44,400.89"/>
    </edge>
    <edge id=":node_1_2_17" function="internal">
        <lane id=":node_1_2_17_0" index="0" speed="9.26" length="14.34" shape="205.44,400.89 205.15,400.85 201.40,398.60 199.15,394.85 198.40,389.60"/>
    </edge>
    <edge id=":node_1_2_8" function="internal">
        <lane id=":node_1_2_8_0" index="0" speed="6.51" length="9.03" shape="204.80,389.60 205.15,392.05 206.20,393.80 207.95,394.85 210.40,395.20"/>
    </edge>
    <edge id=":node_1_2_9" function="internal">
        <lane id=":node_1_2_9_0" index="0" speed="13.89" length="20.80" shape="204.80,389.60 204.80,410.40"/>
        <lane id=":node_1_2_9_1" index="1" speed="13.89" length="20.80" shape="201.60,389.60 201.60,410.40"/>
    </edge>
    <edge id=":node_1_2_11" function="internal">
        <lane id=":node_1_2_11_0" index="0" speed="9.26" length="5.01" shape="201.60,389.60 200.89,394.56"/>
    </edge>
    <edge id=":node_1_2_18" function="internal">
        <lane id=":node_1_2_18_0" index="0" speed="9.26" length="14.34" shape="200.89,394.56 200.85,394.85 198.60,398.60 194.85,400.85 189.60,401.60"/>
    </edge>
    <edge id=":node_1_2_12" function="internal">
        <lane id=":node_1_2_12_0" index="0" speed="6.51" length="9.03" shape="189.60,395.20 192.05,394.85 193.80,393.80 194.85,392.05 195.20,389.60"/>
    </edge>
    <edge id=":node_1_2_13" function="internal">
        <lane id=":node_1_2_13_0" index="0" speed="13.89" length="20.80" shape="189.60,395.20 210.40,395.20"/>
        <lane id=":node_1_2_13_1" index="1" speed="13.89" length="20.80" shape="189.60,398.40 210.40,398.40"/>
    </edge>
    <edge id=":node_1_2_15" function="internal">
        <lane id=":node_1_2_15_0" index="0" speed="9.26" length="5.01" shape="189.60,398.40 194.56,399.11"/>
    </edge>
    <edge id=":node_1_2_19" function="internal">
        <lane id=":node_1_2_19_0" index="0" speed="9.26" length="14.34" shape="194.56,399.11 194.85,399.15 198.60,401.40 200.85,405.15 201.60,410.40"/>
    </edge>
    <edge id=":node_1_3_0" function="internal">
        <lane id=":node_1_3_0_0" index="0" speed="6.51" length="9.03" shape="195.20,610.40 194.85,607.95 193.80,606.20 192.05,605.15 189.60,604.80"/>
    </edge>
    <edge id=":node_1_3_1" function="internal">
        <lane id=":node_1_3_1_0" index="0" speed="13.89" length="20.80" shape="195.20,610.40 195.20,589.60"/>
        <lane id=":node_1_3_1_1" index="1" speed="13.89" length="20.80" shape="198.40,610.40 198.40,589.60"/>
    </edge>
    <edge id=":node_1_3_3" function="internal">
        <lane id=":node_1_3_3_0" index="0" speed="9.26" length="5.01" shape="198.40,610.40 199.11,605.44"/>
    </edge>
    <edge id=":node_1_3_16" function="internal">
        <lane id=":node_1_3_16_0" index="0" speed="9.26" length="14.34" shape="199.11,605.44 199.15,605.15 201.40,601.40 205.15,599.15 210.40,598.40"/>
    </edge>
    <edge id=":node_1_3_4" function="internal">
        <lane id=":node_1_3_4_0" index="0" speed="6.51" length="9.03" shape="210.40,604.80 207.95,605.15 206.20,606.20 205.15,607.95 204.80,610.40"/>
    </edge>
    <edge id=":node_1_3_5" function="internal">
        <lane id=":node_1_3_5_0" index="0" speed="13.89" length="20.80" shape="210.40,604.80 189.60,604.80"/>
        <lane id=":node_1_3_5_1" index="1" speed="13.89" length="20.80" shape="210.40,601.60 189.60,601.60"/>
    </edge>
    <edge id=":node_1_3_7" function="internal">
        <lane id=":node_1_3_7_0" index="0" speed="9.26" length="5.01" shape="210.40,601.60 205.44,600.89"/>
    </edge>
    <edge id=":node_1_3_17" function="internal">
        <lane id=":node_1_3_17_0" index="0" speed="9.26" length="14.34" shape="205.44,600.89 205.15,600.85 201.40,598.60 199.15,594.85 198.40,589.60"/>
    </edge>
    <edge id=":node_1_3_8" function="internal">
        <lane id=":node_1_3_8_0" index="0" speed="6.51" length="9.03" shape="204.80,589.60 205.15,592.05 206.20,593.80 207.95,594.85 210.40,595.20"/>
    </edge>
    <edge id=":node_1_3_9" function="internal">
        <lane id=":node_1_3_9_0" index="0" speed="13.89" length="20.80" shape="204.80,589.60 204.80,610.40"/>
        <lane id=":node_1_3_9_1" index="1" speed="13.89" length="20.80" shape="201.60,589.60 201.60,610.40"/>
    </edge>
    <edge id=":node_1_3_11" function="internal">
        <lane id=":node_1_3_11_0" index="0" speed="9.26" length="5.01" shape="201.60,589.60 200.89,594.56"/>
    </edge>
    <edge id=":node_1_3_18" function="internal">
        <lane id=":node_1_3_18_0" index="0" speed="9.26" length="14.34" shape="200.89,594.56 200.85,594.85 198.60,598.60 194.85,600.85 189.60,601.60"/>
    </edge>
    <edge id=":node_1_3_12" function="internal">
        <lane id=":node_1_3_12_0" index="0" speed="6.51" length="9.03" shape="189.60,595.20 192.05,594.85 193.80,593.80 194.85,592.05 195.20,589.60"/>
    </edge>
    <edge id=":node_1_3_13" function="internal">
        <lane id=":node_1_3_13_0" index="0" speed="13.89" length="20.80" shape="189.60,595.20 210.40,595.20"/>
        <lane id=":node_1_3_13_1" index="1" speed="13.89" length="20.80" shape="189.60,598.40 210.40,598.40"/>
    </edge>
    <edge id=":node_1_3_15" function="internal">
        <lane id=":node_1_3_15_0" index="0" speed="9.26" length="5.01" shape="189.60,598.40 194.56,599.11"/>
    </edge>
    <edge id=":node_1_3_19" function="internal">
        <lane id=":node_1_3_19_0" index="0" speed="9.26" length="14.34" shape="194.56,599.11 194.85,599.15 198.60,601.40 200.85,605.15 201.60,610.40"/>
    </edge>
    <edge id=":node_1_4_0" function="internal">
        <lane id=":node_1_4_0_0" index="0" speed="13.89" length="20.80" shape="210.40,804.80 189.60,804.80"/>
        <lane id=":node_1_4_0_1" index="1" speed="13.89" length="20.80" shape="210.40,801.60 189.60,801.60"/>
    </edge>
    <edge id=":node_1_4_2" function="internal">
        <lane id=":node_1_4_2_0" index="0" speed="9.26" length="5.01" shape="210.40,801.60 205.44,800.89"/>
    </edge>
    <edge id=":node_1_4_9" function="internal">
        <lane id=":node_1_4_9_0" index="0" speed="9.26" length="14.34" shape="205.44,800.89 205.15,800.85 201.40,798.60 199.15,794.85 198.40,789.60"/>
    </edge>
    <edge id=":node_1_4_3" function="internal">
        <lane id=":node_1_4_3_0" index="0" speed="6.51" length="9.03" shape="204.80,789.60 205.15,792.05 206.20,793.80 207.95,794.85 210.40,795.20"/>
        <lane id=":node_1_4_3_1" index="1" speed="8.00" length="14.19" shape="201.60,789.60 202.15,793.45 203.80,796.20 206.55,797.85 210.40,798.40"/>
    </edge>
    <edge id=":node_1_4_5" function="internal">
        <lane id=":node_1_4_5_0" index="0" speed="9.26" length="19.35" shape="201.60,789.60 200.85,794.85 198.60,798.60 194.85,800.85 189.60,801.60"/>
    </edge>
    <edge id=":node_1_4_6" function="internal">
        <lane id=":node_1_4_6_0" index="0" speed="6.51" length="9.03" shape="189.60,795.20 192.05,794.85 193.80,793.80 194.85,792.05 195.20,789.60"/>
    </edge>
    <edge id=":node_1_4_7" function="internal">
        <lane id=":node_1_4_7_0" index="0" speed="13.89" length="20.80" shape="189.60,795.20 210.40,795.20"/>
        <lane id=":node_1_4_7_1" index="1" speed="13.89" length="20.80" shape="189.60,798.40 210.40,798.40"/>
    </edge>
    <edge id=":node_2_0_0" function="internal">
        <lane id=":node_2_0_0_0" index="0" speed="6.51" length="9.03" shape="395.20,10.40 394.85,7.95 393.80,6.20 392.05,5.15 389.60,4.80"/>
        <lane id=":node_2_0_0_1" index="1" speed="8.00" length="14.19" shape="398.40,10.40 397.85,6.55 396.20,3.80 393.45,2.15 389.60,1.60"/>
    </edge>
    <edge id=":node_2_0_2" function="internal">
        <lane id=":node_2_0_2_0" index="0" speed="9.26" length="19.35" shape="398.40,10.40 399.15,5.15 401.40,1.40 405.15,-0.85 410.40,-1.60"/>
    </edge>
    <edge id=":node_2_0_3" function="internal">
        <lane id=":node_2_0_3_0" index="0" speed="6.51" length="9.03" shape="410.40,4.80 407.95,5.15 406.20,6.20 405.15,7.95 404.80,10.40"/>
    </edge>
    <edge id=":node_2_0_4" function="internal">
        <lane id=":node_2_0_4_0" index="0" speed="13.89" length="20.80" shape="410.40,4.80 389.60,4.80"/>
        <lane id=":node_2_0_4_1" index="1" speed="13.89" length="20.80" shape="410.40,1.60 389.60,1.60"/>
    </edge>
    <edge id=":node_2_0_6" function="internal">
        <lane id=":node_2_0_6_0" index="0" speed="13.89" length="20.80" shape="389.60,-4.80 410.40,-4.80"/>
        <lane id=":node_2_0_6_1" index="1" speed="13.89" length="20.80" shape="389.60,-1.60 410.40,-1.60"/>
    </edge>
    <edge id=":node_2_0_8" function="internal">
        <lane id=":node_2_0_8_0" index="0" speed="9.26" length="5.01" shape="389.60,-1.60 394.56,-0.89"/>
    </edge>
    <edge id=":node_2_0_9" function="internal">
        <lane id=":node_2_0_9_0" index="0" speed="9.26" length="14.34" shape="394.56,-0.89 394.85,-0.85 398.60,1.40 400.85,5.15 401.60,10.40"/>
    </edge>
    <edge id=":node_2_1_0" function="internal">
        <lane id=":node_2_1_0_0" index="0" speed="6.51" length="9.03" shape="395.20,210.40 394.85,207.95 393.80,206.20 392.05,205.15 389.60,204.80"/>
    </edge>
    <edge id=":node_2_1_1" function="internal">
        <lane id=":node_2_1_1_0" index="0" speed="13.89" length="20.80" shape="395.20,210.40 395.20,189.60"/>
        <lane id=":node_2_1_1_1" index="1" speed="13.89" length="20.80" shape="398.40,210.40 398.40,189.60"/>
    </edge>
    <edge id=":node_2_1_3" function="internal">
        <lane id=":node_2_1_3_0" index="0" speed="9.26" length="5.01" shape="398.40,210.40 399.11,205.44"/>
    </edge>
    <edge id=":node_2_1_16" function="internal">
        <lane id=":node_2_1_16_0" index="0" speed="9.26" length="14.34" shape="399.11,205.44 399.15,205.15 401.40,201.40 405.15,199.15 410.40,198.40"/>
    </edge>
    <edge id=":node_2_1_4" function="internal">
        <lane id=":node_2_1_4_0" index="0" speed="6.51" length="9.03" shape="410.40,204.80 407.95,205.15 406.20,206.20 405.15,207.95 404.80,210.40"/>
    </edge>
    <edge id=":node_2_1_5" function="internal">
        <lane id=":node_2_1_5_0" index="0" speed="13.89" length="20.80" shape="410.40,204.80 389.60,204.80"/>
        <lane id=":node_2_1_5_1" index="1" speed="13.89" length="20.80" shape="410.40,201.60 389.60,201.60"/>
    </edge>
    <edge id=":node_2_1_7" function="internal">
        <lane id=":node_2_1_7_0" index="0" speed="9.26" length="5.01" shape="410.40,201.60 405.44,200.89"/>
    </edge>
    <edge id=":node_2_1_17" function="internal">
        <lane id=":node_2_1_17_0" index="0" speed="9.26" length="14.34" shape="405.44,200.89 405.15,200.85 401.40,198.60 399.15,194.85 398.40,189.60"/>
    </edge>
    <edge id=":node_2_1_8" function="internal">
        <lane id=":node_2_1_8_0" index="0" speed="6.51" length="9.03" shape="404.80,189.60 405.15,192.05 406.20,193.80 407.95,194.85 410.40,195.20"/>
    </edge>
    <edge id=":node_2_1_9" function="internal">
        <lane id=":node_2_1_9_0" index="0" speed="13.89" length="20.80" shape="404.80,189.60 404.80,210.40"/>
        <lane id=":node_2_1_9_1" index="1" speed="13.89" length="20.80" shape="401.60,189.60 401.60,210.40"/>
    </edge>
    <edge id=":node_2_1_11" function="internal">
        <lane id=":node_2_1_11_0" index="0" speed="9.26" length="5.01" shape="401.60,189.60 400.89,194.56"/>
    </edge>
    <edge id=":node_2_1_18" function="internal">
        <lane id=":node_2_1_18_0" index="0" speed="9.26" length="14.34" shape="400.89,194.56 400.85,194.85 398.60,198.60 394.85,200.85 389.60,201.60"/>
    </edge>
    <edge id=":node_2_1_12" function="internal">
        <lane id=":node_2_1_12_0" index="0" speed="6.51" length="9.03" shape="389.60,195.20 392.05,194.85 393.80,193.80 394.85,192.05 395.20,189.60"/>
    </edge>
    <edge id=":node_2_1_13" function="internal">
        <lane id=":node_2_1_13_0" index="0" speed="13.89" length="20.80" shape="389.60,195.20 410.40,195.20"/>
        <lane id=":node_2_1_13_1" index="1" speed="13.89" length="20.80" shape="389.60,198.40 410.40,198.40"/>
    </edge>
    <edge id=":node_2_1_15" function="internal">
        <lane id=":node_2_1_15_0" index="0" speed="9.26" length="5.01" shape="389.60,198.40 394.56,199.11"/>
    </edge>
    <edge id=":node_2_1_19" function="internal">
        <lane id=":node_2_1_19_0" index="0" speed="9.26" length="14.34" shape="394.56,199.11 394.85,199.15 398.60,201.40 400.85,205.15 401.60,210.40"/>
    </edge>
    <edge id=":node_2_2_0" function="internal">
        <lane id=":node_2_2_0_0" index="0" speed="6.51" length="9.03" shape="395.20,410.40 394.85,407.95 393.80,406.20 392.05,405.15 389.60,404.80"/>
    </edge>
    <edge id=":node_2_2_1" function="internal">
        <lane id=":node_2_2_1_0" index="0" speed="13.89" length="20.80" shape="395.20,410.40 395.20,389.60"/>
        <lane id=":node_2_2_1_1" index="1" speed="13.89" length="20.80" shape="398.40,410.40 398.40,389.60"/>
    </edge>
    <edge id=":node_2_2_3" function="internal">
        <lane id=":node_2_2_3_0" index="0" speed="9.26" length="5.01" shape="398.40,410.40 399.11,405.44"/>
    </edge>
    <edge id=":node_2_2_16" function="internal">
        <lane id=":node_2_2_16_0" index="0" speed="9.26" length="14.34" shape="399.11,405.44 399.15,405.15 401.40,401.40 405.15,399.15 410.40,398.40"/>
    </edge>
    <edge id=":node_2_2_4" function="internal">
        <lane id=":node_2_2_4_0" index="0" speed="6.51" length="9.03" shape="410.40,404.80 407.95,405.15 406.20,406.20 405.15,407.95 404.80,410.40"/>
    </edge>
    <edge id=":node_2_2_5" function="internal">
        <lane id=":node_2_2_5_0" index="0" speed="13.89" length="20.80" shape="410.40,404.80 389.60,404.80"/>
        <lane id=":node_2_2_5_1" index="1" speed="13.89" length="20.80" shape="410.40,401.60 389.60,401.60"/>
    </edge>
    <edge id=":node_2_2_7" function="internal">
        <lane id=":node_2_2_7_0" index="0" speed="9.26" length="5.01" shape="410.40,401.60 405.44,400.89"/>
    </edge>
    <edge id=":node_2_2_17" function="internal">
        <lane id=":node_2_2_17_0" index="0" speed="9.26" length="14.34" shape="405.44,400.89 405.15,400.85 401.40,398.60 399.15,394.85 398.40,389.60"/>
    </edge>
    <edge id=":node_2_2_8" function="internal">
        <lane id=":node_2_2_8_0" index="0" speed="6.51" length="9.03" shape="404.80,389.60 405.15,392.05 406.20,393.80 407.95,394.85 410.40,395.20"/>
    </edge>
    <edge id=":node_2_2_9" function="internal">
        <lane id=":node_2_2_9_0" index="0" speed="13.89" length="20.80" shape="404.80,389.60 404.80,410.40"/>
        <lane id=":node_2_2_9_1" index="1" speed="13.89" length="20.80" shape="401.60,389.60 401.60,410.40"/>
    </edge>
    <edge id=":node_2_2_11" function="internal">
        <lane id=":node_2_2_11_0" index="0" speed="9.26" length="5.01" shape="401.60,389.60 400.89,394.56"/>
    </edge>
    <edge id=":node_2_2_18" function="internal">
        <lane id=":node_2_2_18_0" index="0" speed="9.26" length="14.34" shape="400.89,394.56 400.85,394.85 398.60,398.60 394.85,400.85 389.60,401.60"/>
    </edge>
    <edge id=":node_2_2_12" function="internal">
        <lane id=":node_2_2_12_0" index="0" speed="6.51" length="9.03" shape="389.60,395.20 392.05,394.85 393.80,393.80 394.85,392.05 395.20,389.60"/>
    </edge>
    <edge id=":node_2_2_13" function="internal">
        <lane id=":node_2_2_13_0" index="0" speed="13.89" length="20.80" shape="389.60,395.20 410.40,395.20"/>
        <lane id=":node_2_2_13_1" index="1" speed="13.89" length="20.80" shape="389.60,398.40 410.40,398.40"/>
    </edge>
    <edge id=":node_2_2_15" function="internal">
        <lane id=":node_2_2_15_0" index="0" speed="9.26" length="5.01" shape="389.60,398.40 394.56,399.11"/>
    </edge>
    <edge id=":node_2_2_19" function="internal">