<?xml version="1.0" encoding="UTF-8"?>

<!-- generated on 2025-04-27 19:37:25 by Eclipse SUMO netgenerate Version 1.22.0
<netgenerateConfiguration xmlns:xsi="http://www.w3.org/2001/XMLSchema-instance" xsi:noNamespaceSchemaLocation="http://sumo.dlr.de/xsd/netgenerateConfiguration.xsd">

    <spider_network>
        <spider value="true"/>
        <spider.arm-number value="6"/>
        <spider.circle-number value="3"/>
        <spider.space-radius value="100"/>
    </spider_network>

    <output>
        <output-file value="curriculum_scenarios\spider_6arms_1lane\spider_6arms_1lane_base.net.xml"/>
    </output>

    <building_defaults>
        <default.lanenumber value="1"/>
    </building_defaults>

</netgenerateConfiguration>
-->

<net version="1.20" junctionCornerDetail="5" limitTurnSpeed="5.50" xmlns:xsi="http://www.w3.org/2001/XMLSchema-instance" xsi:noNamespaceSchemaLocation="http://sumo.dlr.de/xsd/net_file.xsd">

    <location netOffset="300.00,259.81" convBoundary="0.00,0.00,600.00,519.62" origBoundary="-300.00,-259.81,300.00,259.81" projParameter="!"/>

    <edge id=":A1_0" function="internal">
        <lane id=":A1_0_0" index="0" speed="5.67" length="9.24" shape="303.39,268.87 301.69,266.67 300.00,265.94 298.31,266.67 296.61,268.87"/>
    </edge>
    <edge id=":A1_1" function="internal">
        <lane id=":A1_1_0" index="0" speed="10.69" length="15.68" shape="303.39,268.87 300.96,265.61 298.00,263.27 294.50,261.87 290.46,261.41"/>
    </edge>
    <edge id=":A1_2" function="internal">
        <lane id=":A1_2_0" index="0" speed="13.89" length="19.09" shape="303.39,268.87 293.84,252.34"/>
    </edge>
    <edge id=":A1_3" function="internal">
        <lane id=":A1_3_0" index="0" speed="11.73" length="19.04" shape="303.39,268.87 301.42,264.34 300.77,259.81 301.42,255.28 303.39,250.74"/>
    </edge>
    <edge id=":A1_4" function="internal">
        <lane id=":A1_4_0" index="0" speed="6.78" length="13.84" shape="303.39,268.87 302.90,265.71 304.16,262.21 306.56,259.37 309.54,258.21"/>
    </edge>
    <edge id=":A1_5" function="internal">
        <lane id=":A1_5_0" index="0" speed="3.65" length="4.67" shape="303.39,268.87 303.48,267.43 303.97,266.69 304.86,266.63 306.16,267.27"/>
    </edge>
    <edge id=":A1_6" function="internal">
        <lane id=":A1_6_0" index="0" speed="5.67" length="9.24" shape="309.54,261.41 306.79,261.77 305.31,262.87 305.10,264.71 306.16,267.27"/>
    </edge>
    <edge id=":A1_7" function="internal">
        <lane id=":A1_7_0" index="0" speed="10.69" length="15.68" shape="309.54,261.41 305.50,261.87 302.00,263.27 299.04,265.61 296.61,268.87"/>
    </edge>
    <edge id=":A1_8" function="internal">
        <lane id=":A1_8_0" index="0" speed="13.89" length="19.09" shape="309.54,261.41 290.46,261.41"/>
    </edge>
    <edge id=":A1_9" function="internal">
        <lane id=":A1_9_0" index="0" speed="11.73" length="19.04" shape="309.54,261.41 304.64,260.84 300.38,259.14 296.79,256.31 293.84,252.34"/>
    </edge>
    <edge id=":A1_10" function="internal">
        <lane id=":A1_10_0" index="0" speed="6.78" length="13.84" shape="309.54,261.41 306.56,260.24 304.16,257.41 302.90,253.91 303.39,250.74"/>
    </edge>
    <edge id=":A1_11" function="internal">
        <lane id=":A1_11_0" index="0" speed="3.65" length="4.67" shape="309.54,261.41 308.34,260.61 307.94,259.81 308.34,259.01 309.54,258.21"/>
    </edge>
    <edge id=":A1_12" function="internal">
        <lane id=":A1_12_0" index="0" speed="5.67" length="9.24" shape="306.16,252.34 305.10,254.91 305.31,256.74 306.79,257.84 309.54,258.21"/>
    </edge>
    <edge id=":A1_13" function="internal">
        <lane id=":A1_13_0" index="0" speed="10.69" length="15.68" shape="306.16,252.34 304.54,256.08 304.00,259.81 304.54,263.54 306.16,267.27"/>
    </edge>
    <edge id=":A1_14" function="internal">
        <lane id=":A1_14_0" index="0" speed="13.89" length="19.09" shape="306.16,252.34 296.61,268.87"/>
    </edge>
    <edge id=":A1_15" function="internal">
        <lane id=":A1_15_0" index="0" speed="11.73" length="19.04" shape="306.16,252.34 303.21,256.31 299.62,259.14 295.36,260.84 290.46,261.41"/>
    </edge>
    <edge id=":A1_16" function="internal">
        <lane id=":A1_16_0" index="0" speed="6.78" length="13.84" shape="306.16,252.34 303.66,254.34 300.00,255.01 296.34,254.34 293.84,252.34"/>
    </edge>
    <edge id=":A1_17" function="internal">
        <lane id=":A1_17_0" index="0" speed="3.65" length="4.67" shape="306.16,252.34 304.86,252.98 303.97,252.93 303.48,252.18 303.39,250.74"/>
    </edge>
    <edge id=":A1_18" function="internal">
        <lane id=":A1_18_0" index="0" speed="5.67" length="9.24" shape="296.61,250.74 298.31,252.94 300.00,253.68 301.69,252.94 303.39,250.74"/>
    </edge>
    <edge id=":A1_19" function="internal">
        <lane id=":A1_19_0" index="0" speed="10.69" length="15.68" shape="296.61,250.74 299.04,254.01 302.00,256.34 305.50,257.74 309.54,258.21"/>
    </edge>
    <edge id=":A1_20" function="internal">
        <lane id=":A1_20_0" index="0" speed="13.89" length="19.09" shape="296.61,250.74 306.16,267.27"/>
    </edge>
    <edge id=":A1_21" function="internal">
        <lane id=":A1_21_0" index="0" speed="11.73" length="19.04" shape="296.61,250.74 298.58,255.28 299.23,259.81 298.58,264.34 296.61,268.87"/>
    </edge>
    <edge id=":A1_22" function="internal">
        <lane id=":A1_22_0" index="0" speed="6.78" length="13.84" shape="296.61,250.74 297.10,253.91 295.84,257.41 293.44,260.24 290.46,261.41"/>
    </edge>
    <edge id=":A1_23" function="internal">
        <lane id=":A1_23_0" index="0" speed="3.65" length="4.67" shape="296.61,250.74 296.52,252.18 296.03,252.93 295.14,252.98 293.84,252.34"/>
    </edge>
    <edge id=":A1_24" function="internal">
        <lane id=":A1_24_0" index="0" speed="5.67" length="9.24" shape="290.46,258.21 293.21,257.84 294.69,256.74 294.90,254.91 293.84,252.34"/>
    </edge>
    <edge id=":A1_25" function="internal">
        <lane id=":A1_25_0" index="0" speed="10.69" length="15.68" shape="290.46,258.21 294.50,257.74 298.00,256.34 300.96,254.01 303.39,250.74"/>
    </edge>
    <edge id=":A1_26" function="internal">
        <lane id=":A1_26_0" index="0" speed="13.89" length="19.09" shape="290.46,258.21 309.54,258.21"/>
    </edge>
    <edge id=":A1_27" function="internal">
        <lane id=":A1_27_0" index="0" speed="11.73" length="19.04" shape="290.46,258.21 295.36,258.77 299.62,260.47 303.21,263.31 306.16,267.27"/>
    </edge>
    <edge id=":A1_28" function="internal">
        <lane id=":A1_28_0" index="0" speed="6.78" length="13.84" shape="290.46,258.21 293.44,259.37 295.84,262.21 297.10,265.71 296.61,268.87"/>
    </edge>
    <edge id=":A1_29" function="internal">
        <lane id=":A1_29_0" index="0" speed="3.65" length="4.67" shape="290.46,258.21 291.66,259.01 292.06,259.81 291.66,260.61 290.46,261.41"/>
    </edge>
    <edge id=":A1_30" function="internal">
        <lane id=":A1_30_0" index="0" speed="5.67" length="9.24" shape="293.84,267.27 294.90,264.71 294.69,262.87 293.21,261.77 290.46,261.41"/>
    </edge>
    <edge id=":A1_31" function="internal">
        <lane id=":A1_31_0" index="0" speed="10.69" length="15.68" shape="293.84,267.27 295.46,263.54 296.00,259.81 295.46,256.08 293.84,252.34"/>
    </edge>
    <edge id=":A1_32" function="internal">
        <lane id=":A1_32_0" index="0" speed="13.89" length="19.09" shape="293.84,267.27 303.39,250.74"/>
    </edge>
    <edge id=":A1_33" function="internal">
        <lane id=":A1_33_0" index="0" speed="11.73" length="19.04" shape="293.84,267.27 296.79,263.31 300.38,260.47 304.64,258.77 309.54,258.21"/>
    </edge>
    <edge id=":A1_34" function="internal">
        <lane id=":A1_34_0" index="0" speed="6.78" length="13.84" shape="293.84,267.27 296.34,265.27 300.00,264.61 303.66,265.27 306.16,267.27"/>
    </edge>
    <edge id=":A1_35" function="internal">
        <lane id=":A1_35_0" index="0" speed="3.65" length="4.67" shape="293.84,267.27 295.14,266.63 296.03,266.69 296.52,267.43 296.61,268.87"/>
    </edge>
    <edge id=":B1_0" function="internal">
        <lane id=":B1_0_0" index="0" speed="9.55" length="12.39" shape="405.85,261.41 403.42,261.87 401.08,263.27 398.81,265.61 396.61,268.87"/>
    </edge>
    <edge id=":B1_1" function="internal">
        <lane id=":B1_1_0" index="0" speed="13.89" length="15.39" shape="405.85,261.41 390.46,261.41"/>
    </edge>
    <edge id=":B1_2" function="internal">
        <lane id=":B1_2_0" index="0" speed="10.70" length="3.55" shape="405.85,261.41 402.56,260.84 402.38,260.74"/>
    </edge>
    <edge id=":B1_3" function="internal">
        <lane id=":B1_3_0" index="0" speed="3.65" length="1.44" shape="405.85,261.41 404.65,260.61"/>
    </edge>
    <edge id=":B1_16" function="internal">
        <lane id=":B1_16_0" index="0" speed="10.70" length="12.19" shape="402.38,260.74 399.46,259.14 396.56,256.31 393.84,252.34"/>
    </edge>
    <edge id=":B1_17" function="internal">
        <lane id=":B1_17_0" index="0" speed="3.65" length="3.23" shape="404.65,260.61 404.25,259.81 404.65,259.01 405.85,258.21"/>
    </edge>
    <edge id=":B1_4" function="internal">
        <lane id=":B1_4_0" index="0" speed="9.55" length="12.39" shape="396.61,250.74 398.81,254.01 401.08,256.34 403.42,257.74 405.85,258.21"/>
    </edge>
    <edge id=":B1_5" function="internal">
        <lane id=":B1_5_0" index="0" speed="11.73" length="19.04" shape="396.61,250.74 398.58,255.28 399.23,259.81 398.58,264.34 396.61,268.87"/>
    </edge>
    <edge id=":B1_6" function="internal">
        <lane id=":B1_6_0" index="0" speed="7.40" length="16.80" shape="396.61,250.74 398.54,255.41 398.15,258.74 395.46,260.74 390.46,261.41"/>
    </edge>
    <edge id=":B1_7" function="internal">
        <lane id=":B1_7_0" index="0" speed="3.65" length="4.67" shape="396.61,250.74 396.52,252.18 396.03,252.93 395.14,252.98 393.84,252.34"/>
    </edge>
    <edge id=":B1_8" function="internal">
        <lane id=":B1_8_0" index="0" speed="5.67" length="9.24" shape="390.46,258.21 393.21,257.84 394.69,256.74 394.90,254.91 393.84,252.34"/>
    </edge>
    <edge id=":B1_9" function="internal">
        <lane id=":B1_9_0" index="0" speed="13.89" length="15.39" shape="390.46,258.21 405.85,258.21"/>
    </edge>
    <edge id=":B1_10" function="internal">
        <lane id=":B1_10_0" index="0" speed="7.40" length="4.93" shape="390.46,258.21 395.35,258.86"/>
    </edge>
    <edge id=":B1_11" function="internal">
        <lane id=":B1_11_0" index="0" speed="3.65" length="1.44" shape="390.46,258.21 391.66,259.01"/>
    </edge>
    <edge id=":B1_18" function="internal">
        <lane id=":B1_18_0" index="0" speed="7.40" length="11.87" shape="395.35,258.86 395.46,258.87 398.15,260.87 398.54,264.21 396.61,268.87"/>
    </edge>
    <edge id=":B1_19" function="internal">
        <lane id=":B1_19_0" index="0" speed="3.65" length="3.23" shape="391.66,259.01 392.06,259.81 391.66,260.61 390.46,261.41"/>
    </edge>
    <edge id=":B1_12" function="internal">
        <lane id=":B1_12_0" index="0" speed="5.67" length="9.24" shape="393.84,267.27 394.90,264.71 394.69,262.87 393.21,261.77 390.46,261.41"/>
    </edge>
    <edge id=":B1_13" function="internal">
        <lane id=":B1_13_0" index="0" speed="10.69" length="15.68" shape="393.84,267.27 395.46,263.54 396.00,259.81 395.46,256.08 393.84,252.34"/>
    </edge>
    <edge id=":B1_14" function="internal">
        <lane id=":B1_14_0" index="0" speed="10.70" length="15.73" shape="393.84,267.27 396.56,263.31 399.46,260.47 402.56,258.77 405.85,258.21"/>
    </edge>
    <edge id=":B1_15" function="internal">
        <lane id=":B1_15_0" index="0" speed="3.65" length="4.67" shape="393.84,267.27 395.14,266.63 396.03,266.69 396.52,267.43 396.61,268.87"/>
    </edge>
    <edge id=":B2_0" function="internal">
        <lane id=":B2_0_0" index="0" speed="9.55" length="12.39" shape="351.54,352.27 349.92,350.41 347.54,349.08 344.38,348.28 340.46,348.01"/>
    </edge>
    <edge id=":B2_1" function="internal">
        <lane id=":B2_1_0" index="0" speed="13.89" length="15.39" shape="351.54,352.27 343.84,338.95"/>
    </edge>
    <edge id=":B2_2" function="internal">
        <lane id=":B2_2_0" index="0" speed="10.70" length="3.55" shape="351.54,352.27 350.38,349.14 350.38,348.94"/>
    </edge>
    <edge id=":B2_3" function="internal">
        <lane id=":B2_3_0" index="0" speed="3.65" length="1.44" shape="351.54,352.27 351.63,350.84"/>
    </edge>
    <edge id=":B2_16" function="internal">
        <lane id=":B2_16_0" index="0" speed="10.70" length="12.19" shape="350.38,348.94 350.31,345.61 351.31,341.68 353.39,337.35"/>
    </edge>
    <edge id=":B2_17" function="internal">
        <lane id=":B2_17_0" index="0" speed="3.65" length="3.23" shape="351.63,350.84 352.12,350.09 353.02,350.04 354.31,350.67"/>
    </edge>
    <edge id=":B2_4" function="internal">
        <lane id=":B2_4_0" index="0" speed="9.55" length="12.39" shape="356.16,338.95 354.43,342.48 353.54,345.61 353.50,348.34 354.31,350.67"/>
    </edge>
    <edge id=":B2_5" function="internal">
        <lane id=":B2_5_0" index="0" speed="11.73" length="19.04" shape="356.16,338.95 353.21,342.91 349.62,345.74 345.36,347.44 340.46,348.01"/>
    </edge>
    <edge id=":B2_6" function="internal">
        <lane id=":B2_6_0" index="0" speed="7.40" length="16.80" shape="356.16,338.95 353.08,342.95 350.00,344.28 346.92,342.95 343.84,338.95"/>
    </edge>
    <edge id=":B2_7" function="internal">
        <lane id=":B2_7_0" index="0" speed="3.65" length="4.67" shape="356.16,338.95 354.86,339.59 353.97,339.53 353.48,338.79 353.39,337.35"/>
    </edge>
    <edge id=":B2_8" function="internal">
        <lane id=":B2_8_0" index="0" speed="5.67" length="9.24" shape="346.61,337.35 348.31,339.55 350.00,340.28 351.69,339.55 353.39,337.35"/>
    </edge>
    <edge id=":B2_9" function="internal">
        <lane id=":B2_9_0" index="0" speed="13.89" length="15.39" shape="346.61,337.35 354.31,350.67"/>
    </edge>
    <edge id=":B2_10" function="internal">
        <lane id=":B2_10_0" index="0" speed="7.40" length="4.93" shape="346.61,337.35 348.50,341.91"/>
    </edge>
    <edge id=":B2_11" function="internal">
        <lane id=":B2_11_0" index="0" speed="3.65" length="1.44" shape="346.61,337.35 346.52,338.79"/>
    </edge>
    <edge id=":B2_18" function="internal">
        <lane id=":B2_18_0" index="0" speed="7.40" length="11.87" shape="348.50,341.91 348.54,342.01 348.15,345.34 345.46,347.34 340.46,348.01"/>
    </edge>
    <edge id=":B2_19" function="internal">
        <lane id=":B2_19_0" index="0" speed="3.65" length="3.23" shape="346.52,338.79 346.03,339.53 345.14,339.59 343.84,338.95"/>
    </edge>
    <edge id=":B2_12" function="internal">
        <lane id=":B2_12_0" index="0" speed="5.67" length="9.24" shape="340.46,344.81 343.21,344.44 344.69,343.34 344.90,341.51 343.84,338.95"/>
    </edge>
    <edge id=":B2_13" function="internal">
        <lane id=":B2_13_0" index="0" speed="10.69" length="15.68" shape="340.46,344.81 344.50,344.34 348.00,342.94 350.96,340.61 353.39,337.35"/>
    </edge>
    <edge id=":B2_14" function="internal">
        <lane id=":B2_14_0" index="0" speed="10.70" length="15.73" shape="340.46,344.81 345.25,345.18 349.15,346.28 352.17,348.11 354.31,350.67"/>
    </edge>
    <edge id=":B2_15" function="internal">
        <lane id=":B2_15_0" index="0" speed="3.65" length="4.67" shape="340.46,344.81 341.66,345.61 342.06,346.41 341.66,347.21 340.46,348.01"/>
    </edge>
    <edge id=":B3_0" function="internal">
        <lane id=":B3_0_0" index="0" speed="9.55" length="12.39" shape="259.54,348.01 255.62,348.28 252.46,349.08 250.08,350.41 248.46,352.27"/>
    </edge>
    <edge id=":B3_1" function="internal">
        <lane id=":B3_1_0" index="0" speed="11.73" length="19.04" shape="259.54,348.01 254.64,347.44 250.38,345.74 246.79,342.91 243.84,338.95"/>
    </edge>
    <edge id=":B3_2" function="internal">
        <lane id=":B3_2_0" index="0" speed="7.40" length="16.80" shape="259.54,348.01 254.54,347.34 251.85,345.34 251.46,342.01 253.39,337.35"/>
    </edge>
    <edge id=":B3_3" function="internal">
        <lane id=":B3_3_0" index="0" speed="3.65" length="4.67" shape="259.54,348.01 258.34,347.21 257.94,346.41 258.34,345.61 259.54,344.81"/>
    </edge>
    <edge id=":B3_4" function="internal">
        <lane id=":B3_4_0" index="0" speed="5.67" length="9.24" shape="256.16,338.95 255.10,341.51 255.31,343.34 256.79,344.44 259.54,344.81"/>
    </edge>
    <edge id=":B3_5" function="internal">
        <lane id=":B3_5_0" index="0" speed="13.89" length="15.39" shape="256.16,338.95 248.46,352.27"/>
    </edge>
    <edge id=":B3_6" function="internal">
        <lane id=":B3_6_0" index="0" speed="7.40" length="4.93" shape="256.16,338.95 253.15,342.86"/>
    </edge>
    <edge id=":B3_7" function="internal">
        <lane id=":B3_7_0" index="0" speed="3.65" length="1.44" shape="256.16,338.95 254.86,339.59"/>
    </edge>
    <edge id=":B3_16" function="internal">
        <lane id=":B3_16_0" index="0" speed="7.40" length="11.87" shape="253.15,342.86 253.08,342.95 250.00,344.28 246.92,342.95 243.84,338.95"/>
    </edge>
    <edge id=":B3_17" function="internal">
        <lane id=":B3_17_0" index="0" speed="3.65" length="3.23" shape="254.86,339.59 253.97,339.53 253.48,338.79 253.39,337.35"/>
    </edge>
    <edge id=":B3_8" function="internal">
        <lane id=":B3_8_0" index="0" speed="5.67" length="9.24" shape="246.61,337.35 248.31,339.55 250.00,340.28 251.69,339.55 253.39,337.35"/>
    </edge>
    <edge id=":B3_9" function="internal">
        <lane id=":B3_9_0" index="0" speed="10.69" length="15.68" shape="246.61,337.35 249.04,340.61 252.00,342.94 255.50,344.34 259.54,344.81"/>
    </edge>
    <edge id=":B3_10" function="internal">
        <lane id=":B3_10_0" index="0" speed="10.70" length="15.73" shape="246.61,337.35 248.69,341.68 249.69,345.61 249.62,349.14 248.46,352.27"/>
    </edge>
    <edge id=":B3_11" function="internal">
        <lane id=":B3_11_0" index="0" speed="3.65" length="4.67" shape="246.61,337.35 246.52,338.79 246.03,339.53 245.14,339.59 243.84,338.95"/>
    </edge>
    <edge id=":B3_12" function="internal">
        <lane id=":B3_12_0" index="0" speed="9.55" length="12.39" shape="245.69,350.67 246.50,348.34 246.46,345.61 245.57,342.48 243.84,338.95"/>
    </edge>
    <edge id=":B3_13" function="internal">
        <lane id=":B3_13_0" index="0" speed="13.89" length="15.39" shape="245.69,350.67 253.39,337.35"/>
    </edge>
    <edge id=":B3_14" function="internal">
        <lane id=":B3_14_0" index="0" speed="10.70" length="3.55" shape="245.69,350.67 247.83,348.11 248.00,348.00"/>
    </edge>
    <edge id=":B3_15" function="internal">
        <lane id=":B3_15_0" index="0" speed="3.65" length="1.44" shape="245.69,350.67 246.98,350.04"/>
    </edge>
    <edge id=":B3_18" function="internal">
        <lane id=":B3_18_0" index="0" speed="10.70" length="12.19" shape="248.00,348.00 250.85,346.28 254.75,345.18 259.54,344.81"/>
    </edge>
    <edge id=":B3_19" function="internal">
        <lane id=":B3_19_0" index="0" speed="3.65" length="3.23" shape="246.98,350.04 247.88,350.09 248.37,350.84 248.46,352.27"/>
    </edge>
    <edge id=":B4_0" function="internal">
        <lane id=":B4_0_0" index="0" speed="9.55" length="12.39" shape="203.39,268.87 201.19,265.61 198.92,263.27 196.58,261.87 194.15,261.41"/>
    </edge>
    <edge id=":B4_1" function="internal">
        <lane id=":B4_1_0" index="0" speed="11.73" length="19.04" shape="203.39,268.87 201.42,264.34 200.77,259.81 201.42,255.28 203.39,250.74"/>
    </edge>
    <edge id=":B4_2" function="internal">
        <lane id=":B4_2_0" index="0" speed="7.40" length="16.80" shape="203.39,268.87 201.46,264.21 201.85,260.87 204.54,258.87 209.54,258.21"/>
    </edge>
    <edge id=":B4_3" function="internal">
        <lane id=":B4_3_0" index="0" speed="3.65" length="4.67" shape="203.39,268.87 203.48,267.43 203.97,266.69 204.86,266.63 206.16,267.27"/>
    </edge>
    <edge id=":B4_4" function="internal">
        <lane id=":B4_4_0" index="0" speed="5.67" length="9.24" shape="209.54,261.41 206.79,261.77 205.31,262.87 205.10,264.71 206.16,267.27"/>
    </edge>
    <edge id=":B4_5" function="internal">
        <lane id=":B4_5_0" index="0" speed="13.89" length="15.39" shape="209.54,261.41 194.15,261.41"/>
    </edge>
    <edge id=":B4_6" function="internal">
        <lane id=":B4_6_0" index="0" speed="7.40" length="4.93" shape="209.54,261.41 204.65,260.76"/>
    </edge>
    <edge id=":B4_7" function="internal">
        <lane id=":B4_7_0" index="0" speed="3.65" length="1.44" shape="209.54,261.41 208.34,260.61"/>
    </edge>
    <edge id=":B4_16" function="internal">
        <lane id=":B4_16_0" index="0" speed="7.40" length="11.87" shape="204.65,260.76 204.54,260.74 201.85,258.74 201.46,255.41 203.39,250.74"/>
    </edge>
    <edge id=":B4_17" function="internal">
        <lane id=":B4_17_0" index="0" speed="3.65" length="3.23" shape="208.34,260.61 207.94,259.81 208.34,259.01 209.54,258.21"/>
    </edge>
    <edge id=":B4_8" function="internal">
        <lane id=":B4_8_0" index="0" speed="5.67" length="9.24" shape="206.16,252.34 205.10,254.91 205.31,256.74 206.79,257.84 209.54,258.21"/>
    </edge>
    <edge id=":B4_9" function="internal">
        <lane id=":B4_9_0" index="0" speed="10.69" length="15.68" shape="206.16,252.34 204.54,256.08 204.00,259.81 204.54,263.54 206.16,267.27"/>
    </edge>
    <edge id=":B4_10" function="internal">
        <lane id=":B4_10_0" index="0" speed="10.70" length="15.73" shape="206.16,252.34 203.44,256.31 200.54,259.14 197.44,260.84 194.15,261.41"/>
    </edge>
    <edge id=":B4_11" function="internal">
        <lane id=":B4_11_0" index="0" speed="3.65" length="4.67" shape="206.16,252.34 204.86,252.98 203.97,252.93 203.48,252.18 203.39,250.74"/>
    </edge>
    <edge id=":B4_12" function="internal">
        <lane id=":B4_12_0" index="0" speed="9.55" length="12.39" shape="194.15,258.21 196.58,257.74 198.92,256.34 201.19,254.01 203.39,250.74"/>
    </edge>
    <edge id=":B4_13" function="internal">
        <lane id=":B4_13_0" index="0" speed="13.89" length="15.39" shape="194.15,258.21 209.54,258.21"/>
    </edge>
    <edge id=":B4_14" function="internal">
        <lane id=":B4_14_0" index="0" speed="10.70" length="3.55" shape="194.15,258.21 197.44,258.77 197.62,258.87"/>
    </edge>
    <edge id=":B4_15" function="internal">
        <lane id=":B4_15_0" index="0" speed="3.65" length="1.44" shape="194.15,258.21 195.35,259.01"/>
    </edge>
    <edge id=":B4_18" function="internal">
        <lane id=":B4_18_0" index="0" speed="10.70" length="12.19" shape="197.62,258.87 200.54,260.47 203.44,263.31 206.16,267.27"/>
    </edge>
    <edge id=":B4_19" function="internal">
        <lane id=":B4_19_0" index="0" speed="3.65" length="3.23" shape="195.35,259.01 195.75,259.81 195.35,260.61 194.15,261.41"/>
    </edge>
    <edge id=":B5_0" function="internal">
        <lane id=":B5_0_0" index="0" speed="5.67" length="9.24" shape="253.39,182.27 251.69,180.07 250.00,179.34 248.31,180.07 246.61,182.27"/>
    </edge>
    <edge id=":B5_1" function="internal">
        <lane id=":B5_1_0" index="0" speed="13.89" length="15.39" shape="253.39,182.27 245.69,168.94"/>
    </edge>
    <edge id=":B5_2" function="internal">
        <lane id=":B5_2_0" index="0" speed="7.40" length="4.93" shape="253.39,182.27 251.50,177.71"/>
    </edge>
    <edge id=":B5_3" function="internal">
        <lane id=":B5_3_0" index="0" speed="3.65" length="1.44" shape="253.39,182.27 253.48,180.83"/>
    </edge>
    <edge id=":B5_16" function="internal">
        <lane id=":B5_16_0" index="0" speed="7.40" length="11.87" shape="251.50,177.71 251.46,177.60 251.85,174.27 254.54,172.27 259.54,171.61"/>
    </edge>
    <edge id=":B5_17" function="internal">
        <lane id=":B5_17_0" index="0" speed="3.65" length="3.23" shape="253.48,180.83 253.97,180.08 254.86,180.03 256.16,180.67"/>
    </edge>
    <edge id=":B5_4" function="internal">
        <lane id=":B5_4_0" index="0" speed="5.67" length="9.24" shape="259.54,174.81 256.79,175.17 255.31,176.27 255.10,178.10 256.16,180.67"/>
    </edge>
    <edge id=":B5_5" function="internal">
        <lane id=":B5_5_0" index="0" speed="10.69" length="15.68" shape="259.54,174.81 255.50,175.27 252.00,176.67 249.04,179.00 246.61,182.27"/>
    </edge>
    <edge id=":B5_6" function="internal">
        <lane id=":B5_6_0" index="0" speed="10.70" length="15.73" shape="259.54,174.81 254.75,174.44 250.85,173.34 247.83,171.51 245.69,168.94"/>
    </edge>
    <edge id=":B5_7" function="internal">
        <lane id=":B5_7_0" index="0" speed="3.65" length="4.67" shape="259.54,174.81 258.34,174.01 257.94,173.21 258.34,172.41 259.54,171.61"/>
    </edge>
    <edge id=":B5_8" function="internal">
        <lane id=":B5_8_0" index="0" speed="9.55" length="12.39" shape="248.46,167.34 250.08,169.21 252.46,170.54 255.62,171.34 259.54,171.61"/>
    </edge>
    <edge id=":B5_9" function="internal">
        <lane id=":B5_9_0" index="0" speed="13.89" length="15.39" shape="248.46,167.34 256.16,180.67"/>
    </edge>
    <edge id=":B5_10" function="internal">
        <lane id=":B5_10_0" index="0" speed="10.70" length="3.55" shape="248.46,167.34 249.62,170.47 249.62,170.68"/>
    </edge>
    <edge id=":B5_11" function="internal">
        <lane id=":B5_11_0" index="0" speed="3.65" length="1.44" shape="248.46,167.34 248.37,168.78"/>
    </edge>
    <edge id=":B5_18" function="internal">
        <lane id=":B5_18_0" index="0" speed="10.70" length="12.19" shape="249.62,170.68 249.69,174.01 248.69,177.94 246.61,182.27"/>
    </edge>
    <edge id=":B5_19" function="internal">
        <lane id=":B5_19_0" index="0" speed="3.65" length="3.23" shape="248.37,168.78 247.88,169.53 246.98,169.58 245.69,168.94"/>
    </edge>
    <edge id=":B5_12" function="internal">
        <lane id=":B5_12_0" index="0" speed="9.55" length="12.39" shape="243.84,180.67 245.57,177.14 246.46,174.01 246.50,171.27 245.69,168.94"/>
    </edge>
    <edge id=":B5_13" function="internal">
        <lane id=":B5_13_0" index="0" speed="11.73" length="19.04" shape="243.84,180.67 246.79,176.70 250.38,173.87 254.64,172.17 259.54,171.61"/>
    </edge>
    <edge id=":B5_14" function="internal">
        <lane id=":B5_14_0" index="0" speed="7.40" length="16.80" shape="243.84,180.67 246.92,176.67 250.00,175.34 253.08,176.67 256.16,180.67"/>
    </edge>
    <edge id=":B5_15" function="internal">
        <lane id=":B5_15_0" index="0" speed="3.65" length="4.67" shape="243.84,180.67 245.14,180.03 246.03,180.08 246.52,180.83 246.61,182.27"/>
    </edge>
    <edge id=":B6_0" function="internal">
        <lane id=":B6_0_0" index="0" speed="5.67" length="9.24" shape="353.39,182.27 351.69,180.07 350.00,179.34 348.31,180.07 346.61,182.27"/>
    </edge>
    <edge id=":B6_1" function="internal">
        <lane id=":B6_1_0" index="0" speed="10.69" length="15.68" shape="353.39,182.27 350.96,179.00 348.00,176.67 344.50,175.27 340.46,174.81"/>
    </edge>
    <edge id=":B6_2" function="internal">
        <lane id=":B6_2_0" index="0" speed="10.70" length="15.73" shape="353.39,182.27 351.31,177.94 350.31,174.01 350.38,170.47 351.54,167.34"/>
    </edge>
    <edge id=":B6_3" function="internal">
        <lane id=":B6_3_0" index="0" speed="3.65" length="4.67" shape="353.39,182.27 353.48,180.83 353.97,180.08 354.86,180.03 356.16,180.67"/>
    </edge>
    <edge id=":B6_4" function="internal">
        <lane id=":B6_4_0" index="0" speed="9.55" length="12.39" shape="354.31,168.94 353.50,171.27 353.54,174.01 354.43,177.14 356.16,180.67"/>
    </edge>
    <edge id=":B6_5" function="internal">
        <lane id=":B6_5_0" index="0" speed="13.89" length="15.39" shape="354.31,168.94 346.61,182.27"/>
    </edge>
    <edge id=":B6_6" function="internal">
        <lane id=":B6_6_0" index="0" speed="10.70" length="3.55" shape="354.31,168.94 352.17,171.51 352.00,171.61"/>
    </edge>
    <edge id=":B6_7" function="internal">
        <lane id=":B6_7_0" index="0" speed="3.65" length="1.44" shape="354.31,168.94 353.02,169.58"/>
    </edge>
    <edge id=":B6_16" function="internal">
        <lane id=":B6_16_0" index="0" speed="10.70" length="12.19" shape="352.00,171.61 349.15,173.34 345.25,174.44 340.46,174.81"/>
    </edge>
    <edge id=":B6_17" function="internal">
        <lane id=":B6_17_0" index="0" speed="3.65" length="3.23" shape="353.02,169.58 352.12,169.53 351.63,168.78 351.54,167.34"/>
    </edge>
    <edge id=":B6_8" function="internal">
        <lane id=":B6_8_0" index="0" speed="9.55" length="12.39" shape="340.46,171.61 344.38,171.34 347.54,170.54 349.92,169.21 351.54,167.34"/>
    </edge>
    <edge id=":B6_9" function="internal">
        <lane id=":B6_9_0" index="0" speed="11.73" length="19.04" shape="340.46,171.61 345.36,172.17 349.62,173.87 353.21,176.70 356.16,180.67"/>
    </edge>
    <edge id=":B6_10" function="internal">
        <lane id=":B6_10_0" index="0" speed="7.40" length="16.80" shape="340.46,171.61 345.46,172.27 348.15,174.27 348.54,177.60 346.61,182.27"/>
    </edge>
    <edge id=":B6_11" function="internal">
        <lane id=":B6_11_0" index="0" speed="3.65" length="4.67" shape="340.46,171.61 341.66,172.41 342.06,173.21 341.66,174.01 340.46,174.81"/>
    </edge>
    <edge id=":B6_12" function="internal">
        <lane id=":B6_12_0" index="0" speed="5.67" length="9.24" shape="343.84,180.67 344.90,178.10 344.69,176.27 343.21,175.17 340.46,174.81"/>
    </edge>
    <edge id=":B6_13" function="internal">
        <lane id=":B6_13_0" index="0" speed="13.89" length="15.39" shape="343.84,180.67 351.54,167.34"/>
    </edge>
    <edge id=":B6_14" function="internal">
        <lane id=":B6_14_0" index="0" speed="7.40" length="4.93" shape="343.84,180.67 346.85,176.76"/>
    </edge>
    <edge id=":B6_15" function="internal">
        <lane id=":B6_15_0" index="0" speed="3.65" length="1.44" shape="343.84,180.67 345.14,180.03"/>
    </edge>