<?xml version="1.0" encoding="UTF-8"?>

<!-- generated on 2025-03-10 08:21:34.037625 by randomTrips.py v1_22_0+0002-63e50f52594
<configuration>
    <net-file value="c:\Users\Jun Kit\Desktop\GeorgeTown-sumo\python\..\network\GeorgeTown.net.xml"/>
    <output-trip-file value="c:\Users\Jun Kit\Desktop\GeorgeTown-sumo\python\..\routes\GeorgeTown.trips.xml"/>
    <fringe-factor value="5"/>
    <validate value="True"/>
</configuration>
-->

<!-- generated on 2025-03-10 08:21:33 by Eclipse SUMO duarouter Version 1.22.0
<duarouterConfiguration xmlns:xsi="http://www.w3.org/2001/XMLSchema-instance" xsi:noNamespaceSchemaLocation="http://sumo.dlr.de/xsd/duarouterConfiguration.xsd">

    <input>
        <net-file value="c:\Users\Jun Kit\Desktop\GeorgeTown-sumo\python\..\network\GeorgeTown.net.xml"/>
        <route-files value="c:\Users\Jun Kit\Desktop\GeorgeTown-sumo\python\..\routes\GeorgeTown.trips.xml"/>
    </input>

    <output>
        <output-file value="routes.rou.xml"/>
        <alternatives-output value="NUL"/>
    </output>

    <time>
        <begin value="0"/>
        <end value="3600.0"/>
    </time>

    <report>
        <no-warnings value="true"/>
        <ignore-errors value="true"/>
        <no-step-log value="true"/>
    </report>

</duarouterConfiguration>
-->

<routes xmlns:xsi="http://www.w3.org/2001/XMLSchema-instance" xsi:noNamespaceSchemaLocation="http://sumo.dlr.de/xsd/routes_file.xsd">
    <vehicle id="0" depart="0.00">
        <route edges="41593066#2 749883664 749883665 1237946652 749883666 749883667#0 749883667#1 749883667#2 749883667#3 749883672 1237946649 749883676 41570121 749883673#0 749883673#1 758465542#0 758465542#1 758465542#2 758465542#3 758465542#4 758465542#5 714372723#1 1234186620 -784292856 -1234186621 -49001554#1 -49001554#0 758465518#0 758465518#1 758465518#2 758465518#3 758465518#4 758465518#5 578842215#4 578842215#5 578842215#6 993395632 23159654 287907711#0 287907711#1 287907711#2 287907712#0 287907712#1 287907712#2 -991090522 -758465531#1 -758465531#0 -758465528 -784925585 290825444 784925586#0 784925586#1 1270323945#0 1270323945#1 1270323945#2 1270323945#3 1270323945#4 1270323945#5 -1270323945#5 -1270323945#4 -1270323945#3 -1270323945#2 -1270323945#1 -1270323945#0"/>
    </vehicle>
    <vehicle id="1" depart="1.00">
        <route edges="-761361242 -275395206 275395207 761361241#0 761361241#1 761361235#0 761361235#1 747351269 994109119 162360688#0 162360688#1 162360688#2 232874893 750501575#0 750501575#1 232874894#0 232874894#1 232874894#2 232874894#3 232874894#4 232874894#5 232874894#6 232874894#7 232874894#8 232874894#9 749883681 41570137#0 41570137#1 41570137#2 41570137#3 41570137#4 31249856 757095610#0 757095610#1 993213455 993213454 993213440 983833450 993537260#0 993537260#1 706924494#0 706924494#1 706924494#2 706923920 787243334 787243333 756622100#0 756622100#1 756622100#2 749883624#0 749883624#1 749883632 749883630 749883631 749883679 749883673#0 749883673#1 758465542#0 758465542#1 758465542#2 758465542#3 758465542#4 758465542#5 -758465542#5 -758465542#4 -758465542#3 -758465542#2 -758465542#1 -758465542#0"/>
    </vehicle>
    <vehicle id="2" depart="2.00">
        <route edges="65692233#3 65692233#4 65692233#5 65692233#6 422712232#0 422712232#1 786282138 179566164#0 179566164#1 179566164#2 179566164#3 993415067 784865483 756622097#0 756622097#1 31249854#0 31249854#1 31249854#2 1328090581#0 1328090581#1 756622096#0 756622096#1 756622096#2 287907914#0 287907914#1 180391474#0 180391474#1 180391474#2 180391474#3 180391474#4 749883657 706923920 787243334 784906017 706923919#0 706923919#1 706923919#2 169543292#0 169543292#1 169543292#2 169543292#3 169543292#4 169543292#5 786282139#0 786282139#1 784859435 749883680 23128778 41570132#0 41570132#1 41570132#2 41570132#3 232874884#0 232874884#1 232874884#2 232874884#3 232874884#4 232874884#5 232874884#6 232874884#7 232874884#8 232874884#9 232874884#10 232874884#11 232874884#12 232874884#13 232874884#14 232874884#15 232874884#16 232874884#17 1240335691#0 1240335691#1 1240335690 1240335687 1240335688#0 32077648#0 32077648#1 32077648#2 23128864#4 23128864#5 23128864#6 757037244#0 757037244#1 761361233 579286162#1 579286162#2 579286169#0 579286169#1"/>
    </vehicle>
    <vehicle id="3" depart="3.00">
        <route edges="760445556#3 760445556#4 760445556#5 760445556#6 760445556#7 760445556#8 760445556#9 760445556#10 760445556#11 232874885#2 232874885#3 -747352537#7 -747352537#6 -747352537#5 -747352537#4 -747352537#3 -747352537#2 -747352537#1 -747352537#0 747351289#0 747351289#1 706923916#0 706923916#1 706923916#2 706923916#3 706923916#4 706923915#0 706923915#1 979454447#0 979454447#1 747362366#0 747362366#1 747362366#2 747362366#3 747362366#4 747362366#5 160440782#0 160440782#1 160440782#2 160440782#3 160440782#4 160440782#5 160440782#6 160440782#7 160440782#8 160440782#9 979454440#0 979454440#1 979454440#2 979454440#3 137903941#0 137903941#1 232874893 750501575#0 750501575#1 232874894#0 232874894#1 232874894#2 232874894#3 232874894#4 232874894#5 232874894#6 232874894#7 232874894#8 232874894#9 993415055 41570131 784859434 41570132#0 41570132#1 41570132#2 41570132#3 232874884#0 232874884#1 232874884#2 232874884#3 232874884#4 232874884#5 232874884#6 232874884#7 232874884#8 232874884#9 41570153#0 41570153#1 41570153#2 41570153#3 757040106#0 757040106#1 757040106#2 757040106#3 -168175852#1 -168175852#0"/>
    </vehicle>
    <vehicle id="4" depart="4.00">
        <route edges="160439553#1 -160439553#1 -160439553#0 579261137#2 579261137#3 579261137#4 183547136 978294684#0 978294684#1 183547134 232874890 978294683 232874891#0 232874891#1 232874891#2 23109784 232874892#0 232874892#1 232874892#2 232874892#3 232874892#4 232874892#5 232874892#6 761361235#0 761361235#1 747351269 994109119 162360688#0 162360688#1 162360688#2 232874893 750501575#0 750501575#1 232874894#0 232874894#1 232874894#2 232874894#3 232874894#4 232874894#5 232874894#6 232874894#7 232874894#8 232874894#9 749883681 41570137#0 41570137#1 41570137#2 41570137#3 41570137#4 31249856 757095610#0 757095610#1 993213455 993213454 993213440 983833450 993537260#0 993537260#1 706924494#0 706924494#1 706924494#2 706923920 787243334 23159712#0 23159712#1 23159712#2 23159712#3 23159712#4 993395633#0 993395633#1 578842215#0 578842215#1 578842215#2 578842215#3 578842215#4 578842215#5 578842215#6 993395632 23159654 287907711#0 287907711#1 287907711#2 31285090#0 31285090#1 31285090#2 -1309612332#2 -1309612332#1 -1309612332#0"/>
    </vehicle>
    <vehicle id="5" depart="5.00">
        <route edges="-750501584#3 -750501584#2 -750501584#1 -750501584#0 750501585#0 750501585#1 -750501602#10 -750501602#9 -750501602#8 -750501602#7 -750501602#6 -750501602#5 -750501602#4 -750501602#3 -750501602#2 -750501602#1 -750501602#0 -1018173701 1018173701 750501602#0 750501602#1 750501602#2 750501602#3 750501602#4 750501602#5 750501602#6 750501602#7 750501602#8 750501602#9 750501602#10 750501601#0 750501601#1 750501601#2 750501601#3 750501601#4 1219975907 23128690#0 23128690#1 23128690#2 579563413 714372724#0 714372724#1 749883642 749883641 749883645#0 749883645#1 749883645#2 749883649 749883654 1237946661 749883660 1237946657 749883665 1237946652 749883666 749883667#0 749883667#1 749883667#2 749883667#3 749883672 1237946649 749883676 749883675 1237946645 749883678 749883628 749883633 1237946862 749883623#0 749883623#1 749883623#2 41570139#0 41570139#1 784859436 169543292#0 169543292#1 169543292#2 169543292#3 169543292#4 169543292#5 786282139#0 786282139#1 784859435 749883680 23128778 41570132#0 41570132#1 41570132#2 41570132#3 31249846#0 31249846#1 31249846#2 31249846#3 31249846#4 31249846#5 993415066#0 993415066#1 993415066#2 993415066#3 232874894#0 232874894#1 232874894#2 232874894#3 232874894#4 232874894#5 232874894#6 232874894#7 232874894#8 264409111#0 264409111#1 264409111#2 264409111#3 264409111#4"/>
    </vehicle>
    <vehicle id="6" depart="6.00">
        <route edges="-1270323945#5 -1270323945#4 -1270323945#3 -1270323945#2 -1270323945#1 -1270323945#0 784925586#2 784925584 41753810#0 41753810#1 784925583 162364890#0 162364890#1 759005736#0 759005736#1 759005736#2 759005736#3 759005736#4 759005736#5 759005736#6 759005736#7 759005736#8 759005736#9 759005736#10 759005736#11 759005736#12 759005736#13 759005736#14 759005736#15 759005736#16 174042707 287907711#0 287907711#1 287907711#2 31285090#0 31285090#1 31285090#2 1309612331#0 1309612331#1 1309612331#2 1309612331#3 1309612329#0 1309612329#1 1309612329#2 784906016 784906015 287907914#0 287907914#1 180391474#0 180391474#1 180391474#2 180391474#3 180391474#4 749883657 706923920 787243334 784906017 706923919#0 706923919#1 706923919#2 169543292#0 169543292#1 169543292#2 169543292#3 169543292#4 169543292#5 786282139#0 786282139#1 784859435 749883680 23128778 41570132#0 41570132#1 41570132#2 41570132#3 232874884#0 232874884#1 232874884#2 232874884#3 232874884#4 232874884#5 232874884#6 232874884#7 232874884#8 232874884#9 232874884#10 232874884#11 232874884#12 232874884#13 232874884#14 232874884#15 232874884#16 232874884#17 1240335691#0 1240335691#1 1240335690 1240335687 1240335688#0 1240335688#1 1240335688#2 1240335688#3 1240335688#4 786282141 786282142 786282140 32077647#0 32077647#1 759009730 -29493812#3 -29493812#2 -29493812#1 -29493812#0 688199320#5 688199320#6 688199320#7 688199320#8 688199320#9 -179564500#0 -41593072#12 -41593072#11 -41593072#10 -41593072#9 -41593072#8 -41593072#7 -41593072#6 -41593072#5 -41593072#4 -41593072#3 -41593072#2 -41593072#1 -41593072#0 1220170011#0 1220170011#1 783956183 -750501584#30 -750501584#29 -750501584#28 -750501584#27 -750501584#26 -750501584#25 -750501584#24 -750501584#23 -750501584#22 -750501584#21 -750501584#20 -750501584#19 -750501584#18 -750501584#17"/>
    </vehicle>
    <vehicle id="7" depart="7.00">
        <route edges="41593077#0 41593077#1 41593077#2 41593077#3 776404701 179745735 179745736#0 179745736#1 786282137#1 179591140#0 179591140#1 179591140#2 784906019#0 784906019#1 756622096#0 756622096#1 756622096#2 287907914#0 287907914#1 993213448#0 993213448#1 993213449 48737682#0 48737682#1 581111411#0 581111411#1 784865484#0 784865484#1 184390385#0 184390385#1 179566164#0 179566164#1 179566164#2 179566164#3 993415067 46906456#0 46906456#1 46906456#2 46906456#3 46906456#4 46906456#5 784805344 714362124#0 714362124#1 714362124#2 168175856#0 168175856#1 48737681 1315231082#0 1315231082#1 41593080#0 41593080#1 784802555 -168169935#1 -168169935#0 31250741"/>
    </vehicle>
    <vehicle id="8" depart="8.00">
        <route edges="-750501584#9 -750501584#8 -750501584#7 -750501584#6 -750501584#5 -750501584#4 -750501584#3 -750501584#2 -750501584#1 -750501584#0 750501585#0 750501585#1 -750501602#10 -750501602#9 -750501602#8 -750501602#7 -750501602#6 -750501602#5 -750501602#4 -750501602#3 -750501602#2 -750501602#1 -750501602#0 -1018173701 -23098507 -1018173700#1 -1018173700#0 -312871737#5 -312871737#4 -312871737#3 -312871737#2 -312871737#1 -312871737#0 750501577#0 750501577#1 32077647#0 32077647#1 759009730 783165764 759009729#0 759009729#1 759009729#2 759009729#3 759009729#4 759009729#5 759009728 1322413196 41570143#0"/>
    </vehicle>
    <vehicle id="9" depart="9.00">
        <route edges="749883673#0 749883673#1 758465542#0 758465542#1 758465542#2 758465542#3 758465542#4 758465542#5 714372723#1 1234186620 578842210#0 578842210#1 578842210#2 578842210#3 706923925#0 706923925#1 706923925#2 706923924 706923921#0 706923921#1 706923921#2 169543292#0 169543292#1 169543292#2 169543292#3 169543292#4 169543292#5 786282139#0 786282139#1 784859435 41570141 41570137#0 41570137#1 41570137#2 41570137#3 41570137#4 232874895#0 232874895#1 184390382 422712232#0 422712232#1 786282138 179566164#0 179566164#1 179566164#2 179566164#3 993415067 784865483 41593077#0 41593077#1 41593077#2 41593077#3 41593077#4 41570134#0 41570134#1 579074809 579074815 1149179827 -1079925969 -1079925970#1 -1079925970#0 -1148900443 -1148899870#4 -1148899870#3 -1148899870#2 -1148899870#1 -1148899870#0 -1148899869 -714361124#6 -714361124#5 -714361124#4 -714361124#3 -714361124#2 -714361124#1 -714361124#0 -1148897217 -1148897218#3 -1148897218#2"/>
    </vehicle>
    <vehicle id="10" depart="10.00">
        <route edges="749883660 1237946657 749883665 1237946652 749883666 749883667#0 749883667#1 749883667#2 749883667#3 31285085#0 31285085#1 31285085#2 31285085#3 641231358#0 641231358#1"/>
    </vehicle>
    <vehicle id="11" depart="11.00">
        <route edges="1199395939#0 1199395939#1 758465593 575168045 758465595 1173353120 1173353119 1173353127 -1173353122 -162392786#5 -162392786#4 -162392786#3 -162392786#2 -162392786#1 -162392786#0 992998733#0 992998733#1 403108653 1173353104 578819518 990219990#0 990219990#1 990219990#2 990219990#3 760111259#0 760111259#1 760111259#2 760111259#3 760111259#4 760111259#5 760111259#6 760111259#7 760111257#0 760111257#1 762328089#0 762328089#1 714372715 714372719 759005728 41656765 1307388366 578842199 1307388365 578842206 46906452 786352439#0 786352439#1 786352439#2 578842204#0 578842204#1 784831249 -49001555 -578842204#2 -578842204#1"/>
    </vehicle>
    <vehicle id="12" depart="12.00">
        <route edges="836888229#0 836888229#1 -784826429 -733386748#1 -733386748#0 -986519252#3 986519252#3 733386748#0 733386748#1 784826429 1278084652#0 1278084652#1 1278084653#2 1278084653#3 1278084654"/>
    </vehicle>
    <vehicle id="13" depart="13.00">
        <route edges="-23128864#5 -23128864#4 32077648#3 32077648#4 979454515#1 761361232#0 761361232#1 761361232#2 761361232#3 761361232#4 761361232#5 761361232#6 761361232#7 761361232#8 761361232#9 761361232#10 761361232#11 761361232#12 761361232#13 761361232#14 761361232#15 761361232#16 993415065#0 993415065#1 993415065#2 993415065#3 993415065#4 993415065#5 993415065#6 31249849 747351267#0 747351267#1 747351267#2 747351267#3 747351267#4 747351267#5 747351267#6 747351268#0 747351268#1 -761361235#1 -761361235#0 -232874892#6 -232874892#5 -232874892#4 -232874892#3 -232874892#2 -232874892#1 -232874892#0 760556928#0 760556928#1 232874888#2 232874888#3 232874888#4 232874888#5 184370187 23109528#2 23109528#3 23109528#4 23109528#5 23109528#6 23109528#7 23109528#8 23109528#9 23109528#10 978296550#0 978296550#1 978296550#2 978296550#3 784330005 -975342603 -182488021"/>
    </vehicle>
    <vehicle id="14" depart="14.00">
        <route edges="758391348 758391347 573603762#0 573603762#1 1240960650 180390898#0 180390898#1 180391242 758391357 758391360#0 758391360#1 573603769#0 573603769#1 23159641 771557426 65932430 579074817#0 579074817#1 784913377 786282137#0 786282137#1 179591140#0 179591140#1 179591140#2 784906019#0 784906019#1 756622096#0 756622096#1 756622096#2 287907914#0 287907914#1 180391474#0 180391474#1 180391474#2 180391474#3 180391474#4 749883657 706923920 787243334 787243333 756622100#0 756622100#1 756622100#2 749883624#0 749883624#1 749883632 749883630 749883631 749883679 749883674 1237946647#0 1237946647#1 1237946647#2 749883671 749883669 1237946650 749883663 749883662 1237946654 1237946655 749883659 749883652#0 749883652#1 749883651 749883647 749883646 749883640#0 749883640#1 749883640#2 41593068#0 41593068#1 41593068#2 41593068#3"/>
    </vehicle>
    <vehicle id="15" depart="15.00">
        <route edges="749883667#0 749883667#1 749883667#2 749883667#3 31285085#0 31285085#1 31285085#2 31285085#3 31285085#4 31285085#5 31285085#6 31285085#7 31285085#8 31285085#9 31285085#10 31285085#11 31285085#12 232874884#6 232874884#7 232874884#8 232874884#9 232874884#10 232874884#11 232874884#12 232874884#13 232874884#14 232874884#15 232874884#16 232874884#17 1240335691#0 1240335691#1 1240335690 1240335687 1240335688#0 1240335688#1 1240335688#2 1240335688#3 1240335688#4 786282141 786282142 786282140 32077647#0 32077647#1 759009730 783165764 41570146#0 41570146#1 41570146#2 41570146#3 41570146#4 41570146#5 41570146#6 41570146#7 1215226726#1 1215226726#2 1215226726#3 978296549 756622098#0 756622098#1 756622098#2 582255156 742645989 1243107030 742645990 842950900 725271358 1243107027 742645991 742645993 698179757 698179755"/>
    </vehicle>
    <vehicle id="16" depart="16.00">
        <route edges="263737498#0 263737498#1 263737498#2 -180390681#2 -180390681#1 -180390681#0 285692163#0 285692163#1 285692163#2 285692163#3 285692163#4 285692163#5 285692163#6 573603762#0 573603762#1 1240960650 180390898#0 180390898#1 180391242 758391357 758391360#0 758391360#1 573603769#0 573603769#1 23159641 771557426 65932430 579074817#0 579074817#1 784913377 786282137#0 786282137#1 179591140#0 179591140#1 179591140#2 784906019#0 784906019#1 756622096#0 756622096#1 756622096#2 287907914#0 287907914#1 180391474#0 180391474#1 180391474#2 180391474#3 180391474#4 749883657 706923920 787243334 784906017 706923919#0 706923919#1 706923919#2 169543292#0 169543292#1 169543292#2 169543292#3 169543292#4 169543292#5 786282139#0 786282139#1 784859435 749883680 23128778 41570132#0 41570132#1 41570132#2 41570132#3 31249846#0 31249846#1 31249846#2 31249846#3 31249846#4 31249846#5 993415065#0 993415065#1 993415065#2 993415065#3 993415065#4 993415065#5 993415065#6 31249849 747351267#0 747351267#1 747351267#2 747351267#3 747351267#4 747351267#5 747351267#6 747351270#0 747351270#1 994109119 162360688#0 162360688#1 979454442#0 979454442#1 979454442#2 979454442#3"/>
    </vehicle>
    <vehicle id="17" depart="17.00">
        <route edges="1356543509#0 1356543509#1 1356543509#2 1356543509#3 1356543509#4 1356543509#5 1356543509#6 1356543509#7 1356543509#8 1356543509#9 1356543509#10 1356543509#11 1356543509#12 1356543509#13 170718957 170718958 781928193 1199395940 575168045 758465595 1173353120 1173353119 1173353127 -1173353122 -162392786#5 -162392786#4 -162392786#3 -162392786#2 -162392786#1 -162392786#0 992998733#0 992998733#1 403108653 1173353104 578819518 990219990#0 990219990#1 990219990#2 990219990#3 760111259#0 760111259#1 760111259#2 760111259#3 760111259#4 760111259#5 760111259#6 760111259#7 760111257#0 760111257#1 762328089#0 762328089#1 714372715 714372719 759005728 41656765 1307388366 578842199 1307388365 578842207#0 578842207#1 578842207#2 714372723#0 714372723#1 1234186620 578842210#0 578842210#1 578842210#2 578842210#3 706923925#0 706923925#1 706923925#2 706923924 706923921#0 706923921#1 706923921#2 169543292#0 169543292#1 169543292#2 169543292#3 169543292#4 169543292#5 786282139#0 786282139#1 784859435 41570141 41570137#0 41570137#1 41570137#2 41570137#3 41570137#4 232874895#0 232874895#1 184390382 422712232#0 422712232#1 786282138 179566164#0 179566164#1 179566164#2 179566164#3 993415067 784865483 41593077#0 41593077#1 41593077#2 41593077#3 41593077#4 160439701#0 160439701#1 160439693#0 160439693#1 160439693#2 160439693#3 160439703#0 160439703#1 31283701#0 31283701#1 31283701#2 31283701#3 31283701#4"/>
    </vehicle>
    <vehicle id="18" depart="18.00">
        <route edges="756622100#2 749883624#0 749883624#1 749883632 749883630 749883631 749883679 749883674 1237946647#0 1237946647#1 1237946647#2 749883671 749883669 776901334 1237946652 749883666 749883667#0 749883667#1 749883667#2 749883667#3 749883672 1237946649 749883676 749883675 1237946645 749883678 749883628 749883633 1237946862 749883623#0 749883623#1 749883623#2 41570139#0 41570139#1 784859436 169543292#0 169543292#1 169543292#2 169543292#3 169543292#4 169543292#5 786282139#0 786282139#1 784859435 41570141 41570137#0 41570137#1 41570137#2 41570137#3 41570137#4 232874895#0 232874895#1 184390382 422712232#0 422712232#1 786282138 179566164#0 179566164#1 179566164#2 179566164#3 993415067 46906456#0 46906456#1 46906456#2 46906456#3 46906456#4 46906456#5 784805344 714362124#0 714362124#1 714362124#2 168175856#0 168175856#1 48737681 1315231082#0 1315231082#1 1315231082#2 -607843788#2 -607843788#1 -607843788#0 -607843787 747362362#0 747362362#1 747362362#2 1258165054 784800203 747362364#0 747362364#1 784811174 979454448#0 979454448#1 979454448#2 -579261136#3 -579261136#2 -579261136#1 -579261136#0 41657435 41657433#0 41657433#1 41657433#2"/>
    </vehicle>
    <vehicle id="19" depart="19.00">
        <route edges="758465583 1199395938 758465595 1173353120 1173353119 1173353127 -1173353122 -162392786#5 -162392786#4 -162392786#3 -162392786#2 -162392786#1 -162392786#0 992998733#0 992998733#1 403108653 1173353104 578819518 990219990#0 990219990#1 990219990#2 990219990#3 760111259#0 760111259#1 760111259#2 760111259#3 760111259#4 760111259#5 760111259#6 760111259#7 760111257#0 760111257#1 762328089#0 762328089#1 714372715 714372719 759005728 41656765 1307388366 578842199 1307388365 578842207#0 578842207#1 578842207#2 714372723#0 714372723#1 1234186620 578842210#0 578842210#1 578842210#2 578842210#3 706923925#0 706923925#1 706923925#2 706923924 706923921#0 706923921#1 706923921#2 169543292#0 169543292#1 169543292#2 169543292#3 169543292#4 169543292#5 786282139#0 786282139#1 784859435 749883680 23128778 41570132#0 41570132#1 41570132#2 41570132#3 232874884#0 41570122#0 41570122#1 41570122#2 41570122#3 41570122#4 41570122#5 41570122#6 41570122#7 41570122#8 41570122#9 41570122#10 41570122#11"/>
    </vehicle>
    <vehicle id="20" depart="20.00">
        <route edges="579074809 579074815 1149179827 -1079925969 -1079925970#1 -1079925970#0 1079925970#0 1079925970#1 1079925969 784822853 572827188 1149209155 579074811 179745732 179745733 184525967 579074813 579074817#0 579074817#1 784913377 786282137#0 786282137#1 179591140#0 179591140#1 179591140#2 784906019#0 784906019#1 756622096#0 756622096#1 756622096#2 287907914#0 287907914#1 180391474#0 180391474#1 180391474#2 180391474#3 180391474#4 749883657 706923920 787243334 787243333 31285089#0 31285089#1 31285089#2 31285089#3 31285089#4 578842212#0 578842212#1 578842212#2 578842212#3 714372722 578842209 578842205#0 578842205#1 -159153395#2 -159153395#1 -159153395#0 -757094069 -156570278#6"/>
    </vehicle>
    <vehicle id="21" depart="21.00">
        <route edges="-757037245#0 1018499505#0 1018499505#1 41570147#5 41570147#6 41570147#7 41570147#8 979454515#0 979454515#1 761361232#0 761361232#1 761361232#2 761361232#3 761361232#4 761361232#5 761361232#6 761361232#7 761361232#8 761361232#9 761361232#10 761361232#11 761361232#12 761361232#13 761361232#14 761361232#15 761361232#16 993415066#0 993415066#1 993415066#2 993415066#3 232874894#0 232874894#1 232874894#2 232874894#3 232874894#4 232874894#5 232874894#6 232874894#7 232874894#8 232874894#9 749883681 41570137#0 41570137#1 41570137#2 41570137#3 41570137#4 232874895#0 232874895#1 184390382 422712232#0 422712232#1 786282138 179566164#0 179566164#1 179566164#2 179566164#3 993415067 784865483 41593077#0 41593077#1 41593077#2 41593077#3 41593077#4 41570134#0 41570134#1 579074809 579074815 1149179827 -1079925969 -1079925970#1 -1079925970#0 -1148900443 -1148899870#4 -1148899870#3 -1148899870#2 -1148899870#1 -1148899870#0 1148899870#0 1148899870#1 1148899870#2"/>
    </vehicle>
    <vehicle id="22" depart="22.00">
        <route edges="-162392786#3 -162392786#2 -162392786#1 -162392786#0 992998733#0 992998733#1 403108653 1173353104 578819518 990219990#0 990219990#1 990219990#2 990219990#3 760111259#0 760111259#1 760111259#2 760111259#3 760111259#4 760111259#5 760111259#6 760111259#7 760111257#0 760111257#1 762328089#0 762328089#1 714372715 714372719 759005728 41656765 1307388366 578842199 -758466064#16 -758466064#15 -758466064#14 -758466064#13 -758466064#12 -758466064#11 -758466064#10 -758466064#9"/>
    </vehicle>
    <vehicle id="23" depart="23.00">
        <route edges="-252235823#8 -252235823#7 -252235823#6 -252235823#5 -252235823#4 -252235823#3 -252235823#2 -252235823#1 -23159706#1 -23159706#0 -758479427#2 -758479427#1 -758479427#0 -993395635#2 -993395635#1 -993395635#0 -641589076 -1278084654 -1278084653#3 -1278084653#2 -1278084653#1 -1278084653#0 -641589077#4 -641589077#3 -641589077#2 -641589077#1 -641589077#0 784851902 759005725 759005728 41656765 1307388366 578842199 1307388365 578842207#0 578842207#1 578842207#2 -758465543#7 -758465543#6 -758465543#5 -758465543#4 -758465543#3 -758465543#2 -758465543#1 -758465543#0 1018158043#0"/>
    </vehicle>
    <vehicle id="24" depart="24.00">
        <route edges="41590605#16 41590605#17 688080680 688080681#0 688080681#1 688080681#2 783920020#0 783920020#1 783920021#0 783920021#1 783920021#2 579563413 714372724#0 714372724#1 749883642 749883641 749883645#0 749883645#1 749883645#2 749883649 749883654 1237946661 749883660 1237946657 749883665 1237946652 749883666 749883667#0 749883667#1 749883667#2 749883667#3 749883672 1237946649 749883676 41570121 749883673#0 749883673#1 758465542#0 758465542#1 758465542#2 758465542#3 758465542#4 758465542#5 714372723#1 1234186620 -784292856 578842212#0 578842212#1 578842212#2 578842212#3 714372722 578842209 578842205#0 578842205#1 784834190 156570278#0 156570278#1"/>
    </vehicle>
    <vehicle id="25" depart="25.00">
        <route edges="1309612330#0 1309612330#1 1309612330#2 1309612329#0 1309612329#1 1309612329#2 784906016 784906015 287907914#0 287907914#1 180391474#0 180391474#1 180391474#2 180391474#3 180391474#4 749883657 706923920 787243334 784906017 706923919#0 706923919#1 706923919#2 169543292#0 169543292#1 169543292#2 169543292#3 169543292#4 169543292#5 786282139#0 786282139#1 784859435 749883680 23128778 41570132#0 41570132#1 41570132#2 41570132#3 232874884#0 232874884#1 232874884#2 232874884#3 232874884#4 232874884#5 232874884#6 232874884#7 232874884#8 232874884#9 232874884#10 232874884#11 232874884#12 232874884#13 232874884#14 232874884#15 232874884#16 232874884#17 1240335691#0 1240335691#1 1240335690 1240335687 1240335688#0 1240335688#1 1240335688#2 1240335688#3 1240335688#4 786282141 786282142 786282140 32077647#0 32077647#1 759009730 -29493812#3 -29493812#2 -29493812#1 -29493812#0 -688199320#4 -757037241#1"/>
    </vehicle>
    <vehicle id="26" depart="26.00">
        <route edges="-758479409#1 -758479409#0 1173353138#8 1173353138#9 1173353138#10 1173353138#11 1173353138#12 1173353138#13 1173353138#14 1173353138#15 1173353138#16 1173353138#17 1173353138#18 1173353138#19 761356883 1173353145 1173353144 1173353156 1173353147 1173353148 -1173353150 -1173353151 -1173353152 -25797904#4 -25797904#3 -25797904#2 -25797904#1 -25797904#0 -758479427#2 -758479427#1 -758479427#0 -993395635#2 -993395635#1 -993395635#0 -641589076 -1278084654 -1278084653#3 -1278084653#2 -1278084653#1 -1278084653#0 -641589077#4 -641589077#3 -641589077#2 -641589077#1 -641589077#0 784851902 759005725 759005728 41656765 1307388366 578842199 1307388365 578842207#0 578842207#1 578842207#2 714372723#0 714372723#1 1234186620 578842210#0 578842210#1 578842210#2 578842210#3 706923925#0 706923925#1 706923925#2 706923924 706923921#0 706923921#1 706923921#2 169543292#0 169543292#1 169543292#2 169543292#3 169543292#4 169543292#5 786282139#0 786282139#1 784859435 41570141 41570137#0 41570137#1 41570137#2 41570137#3 41570137#4 232874895#0 232874895#1 184390382 422712232#0 422712232#1 786282138 179566164#0 179566164#1 179566164#2 179566164#3 993415067 46906456#0 46906456#1 46906456#2 46906456#3 46906456#4 46906456#5 784805344 714362124#0 714362124#1 714362124#2 168175856#0 168175856#1 48737681 1315231082#0 1315231082#1 1315231082#2 -607843788#2 -607843788#1 -607843788#0 -607843787 747362362#0 747362362#1 747362362#2 1258165054 784800203"/>
    </vehicle>
    <vehicle id="27" depart="27.00">
        <route edges="41593073#9 41593073#10 41593073#11 -41593073#11 -41593073#10 -41593073#9 -41593073#8 -41593073#7 -41593073#6 -41593073#5 -41593073#4 -41593073#3 -41593073#2 -41593073#1 41593073#1"/>
    </vehicle>
    <vehicle id="28" depart="28.00">
        <route edges="-642158453 -156570531#1 -156570531#0 -159152502#3 -159152502#2 -159152502#1 -159152502#0 714372718#2 714372718#3 714372718#4 714372718#5 742653798#6 742653798#7 742653798#8 742653798#9 742653798#10 742653798#11 742653798#12 742653798#13 742653798#14 742653798#15 578819516 762328080#0 762328080#1 762328080#2 762328080#3 762328080#4 762328080#5 762328080#6 762328080#7 1220172096#0 1220172096#1 23098448#0 23098448#1 783915110#0 783915110#1 783915110#2 783915110#3 783915110#4 41590605#0 41590605#1 41590605#2 41590605#3 41590605#4 41590605#5 41590605#6 41590605#7 41590605#8 41590605#9 41590605#10 41590605#11 41590605#12 41590605#13 41590605#14 41590605#15 41590605#16 41590605#17 688080680 688080681#0 688080681#1 688080681#2 783920020#0 783920020#1 41590603#0 41590603#1 -1219975907 -750501601#4 -750501601#3 -750501601#2 -750501601#1 -750501601#0 -750501602#10 -750501602#9 -750501602#8 -750501602#7 -750501602#6 -750501602#5 -750501602#4 -750501602#3 -750501602#2 -750501602#1 -750501602#0 -1018173701 750501581 688199320#0 688199320#1 688199320#2 688199320#3 688199320#4 688199320#5 688199320#6 688199320#7 688199320#8 688199320#9"/>
    </vehicle>
    <vehicle id="29" depart="29.00">