<?xml version="1.0" encoding="UTF-8"?>
<configuration xmlns:xsi="http://www.w3.org/2001/XMLSchema-instance" xsi:noNamespaceSchemaLocation="http://sumo.dlr.de/xsd/sumoConfiguration.xsd">
    <input>
        <net-file value="grid_5x5_1lane.net.xml"/>
        <route-files value="grid_5x5_1lane_heavy.rou.xml"/>
    </input>
    <time>
        <begin value="0"/>
        <end value="3600"/>
    </time>
    <processing>
        <time-to-teleport value="300"/>
        <ignore-junction-blocker value="30"/>
        <collision.action value="warn"/>
        <collision.stoptime value="5"/>
    </processing>
    <report>
        <verbose value="true"/>
        <duration-log.statistics value="true"/>
        <no-step-log value="true"/>
    </report>
</configuration>
